* SPICE3 file created from user_analog_project_wrapper.ext - technology: sky130A

.subckt user_analog_project_wrapper gpio_analog[0] gpio_analog[10] gpio_analog[11]
+ gpio_analog[12] gpio_analog[13] gpio_analog[14] gpio_analog[15] gpio_analog[16]
+ gpio_analog[17] gpio_analog[1] gpio_analog[2] gpio_analog[3] gpio_analog[4] gpio_analog[5]
+ gpio_analog[6] gpio_analog[7] gpio_analog[8] gpio_analog[9] gpio_noesd[0] gpio_noesd[10]
+ gpio_noesd[11] gpio_noesd[12] gpio_noesd[13] gpio_noesd[14] gpio_noesd[15] gpio_noesd[16]
+ gpio_noesd[17] gpio_noesd[1] gpio_noesd[2] gpio_noesd[3] gpio_noesd[4] gpio_noesd[5]
+ gpio_noesd[6] gpio_noesd[7] gpio_noesd[8] gpio_noesd[9] io_analog[0] io_analog[10]
+ io_analog[1] io_analog[2] io_analog[3] io_analog[4] io_analog[5] io_analog[6] io_analog[7]
+ io_analog[8] io_analog[9] io_clamp_high[0] io_clamp_high[1] io_clamp_high[2] io_clamp_low[0]
+ io_clamp_low[1] io_clamp_low[2] io_in[0] io_in[10] io_in[11] io_in[12] io_in[13]
+ io_in[14] io_in[15] io_in[16] io_in[17] io_in[18] io_in[19] io_in[1] io_in[20] io_in[21]
+ io_in[22] io_in[23] io_in[24] io_in[25] io_in[26] io_in[2] io_in[3] io_in[4] io_in[5]
+ io_in[6] io_in[7] io_in[8] io_in[9] io_in_3v3[0] io_in_3v3[10] io_in_3v3[11] io_in_3v3[12]
+ io_in_3v3[13] io_in_3v3[14] io_in_3v3[15] io_in_3v3[16] io_in_3v3[17] io_in_3v3[18]
+ io_in_3v3[19] io_in_3v3[1] io_in_3v3[20] io_in_3v3[21] io_in_3v3[22] io_in_3v3[23]
+ io_in_3v3[24] io_in_3v3[25] io_in_3v3[26] io_in_3v3[2] io_in_3v3[3] io_in_3v3[4]
+ io_in_3v3[5] io_in_3v3[6] io_in_3v3[7] io_in_3v3[8] io_in_3v3[9] io_oeb[0] io_oeb[10]
+ io_oeb[11] io_oeb[12] io_oeb[13] io_oeb[14] io_oeb[15] io_oeb[16] io_oeb[17] io_oeb[18]
+ io_oeb[19] io_oeb[1] io_oeb[20] io_oeb[21] io_oeb[22] io_oeb[23] io_oeb[24] io_oeb[25]
+ io_oeb[26] io_oeb[2] io_oeb[3] io_oeb[4] io_oeb[5] io_oeb[6] io_oeb[7] io_oeb[8]
+ io_oeb[9] io_out[0] io_out[10] io_out[11] io_out[12] io_out[13] io_out[14] io_out[15]
+ io_out[16] io_out[17] io_out[18] io_out[19] io_out[1] io_out[20] io_out[21] io_out[22]
+ io_out[23] io_out[24] io_out[25] io_out[26] io_out[2] io_out[3] io_out[4] io_out[5]
+ io_out[6] io_out[7] io_out[8] io_out[9] la_data_in[0] la_data_in[100] la_data_in[101]
+ la_data_in[102] la_data_in[103] la_data_in[104] la_data_in[105] la_data_in[106]
+ la_data_in[107] la_data_in[108] la_data_in[109] la_data_in[10] la_data_in[110] la_data_in[111]
+ la_data_in[112] la_data_in[113] la_data_in[114] la_data_in[115] la_data_in[116]
+ la_data_in[117] la_data_in[118] la_data_in[119] la_data_in[11] la_data_in[120] la_data_in[121]
+ la_data_in[122] la_data_in[123] la_data_in[124] la_data_in[125] la_data_in[126]
+ la_data_in[127] la_data_in[12] la_data_in[13] la_data_in[14] la_data_in[15] la_data_in[16]
+ la_data_in[17] la_data_in[18] la_data_in[19] la_data_in[1] la_data_in[20] la_data_in[21]
+ la_data_in[22] la_data_in[23] la_data_in[24] la_data_in[25] la_data_in[26] la_data_in[27]
+ la_data_in[28] la_data_in[29] la_data_in[2] la_data_in[30] la_data_in[31] la_data_in[32]
+ la_data_in[33] la_data_in[34] la_data_in[35] la_data_in[36] la_data_in[37] la_data_in[38]
+ la_data_in[39] la_data_in[3] la_data_in[40] la_data_in[41] la_data_in[42] la_data_in[43]
+ la_data_in[44] la_data_in[45] la_data_in[46] la_data_in[47] la_data_in[48] la_data_in[49]
+ la_data_in[4] la_data_in[50] la_data_in[51] la_data_in[52] la_data_in[53] la_data_in[54]
+ la_data_in[55] la_data_in[56] la_data_in[57] la_data_in[58] la_data_in[59] la_data_in[5]
+ la_data_in[60] la_data_in[61] la_data_in[62] la_data_in[63] la_data_in[64] la_data_in[65]
+ la_data_in[66] la_data_in[67] la_data_in[68] la_data_in[69] la_data_in[6] la_data_in[70]
+ la_data_in[71] la_data_in[72] la_data_in[73] la_data_in[74] la_data_in[75] la_data_in[76]
+ la_data_in[77] la_data_in[78] la_data_in[79] la_data_in[7] la_data_in[80] la_data_in[81]
+ la_data_in[82] la_data_in[83] la_data_in[84] la_data_in[85] la_data_in[86] la_data_in[87]
+ la_data_in[88] la_data_in[89] la_data_in[8] la_data_in[90] la_data_in[91] la_data_in[92]
+ la_data_in[93] la_data_in[94] la_data_in[95] la_data_in[96] la_data_in[97] la_data_in[98]
+ la_data_in[99] la_data_in[9] la_data_out[0] la_data_out[100] la_data_out[101] la_data_out[102]
+ la_data_out[103] la_data_out[104] la_data_out[105] la_data_out[106] la_data_out[107]
+ la_data_out[108] la_data_out[109] la_data_out[10] la_data_out[110] la_data_out[111]
+ la_data_out[112] la_data_out[113] la_data_out[114] la_data_out[115] la_data_out[116]
+ la_data_out[117] la_data_out[118] la_data_out[119] la_data_out[11] la_data_out[120]
+ la_data_out[121] la_data_out[122] la_data_out[123] la_data_out[124] la_data_out[125]
+ la_data_out[126] la_data_out[127] la_data_out[12] la_data_out[13] la_data_out[14]
+ la_data_out[15] la_data_out[16] la_data_out[17] la_data_out[18] la_data_out[19]
+ la_data_out[1] la_data_out[20] la_data_out[21] la_data_out[22] la_data_out[23] la_data_out[24]
+ la_data_out[25] la_data_out[26] la_data_out[27] la_data_out[28] la_data_out[29]
+ la_data_out[2] la_data_out[30] la_data_out[31] la_data_out[32] la_data_out[33] la_data_out[34]
+ la_data_out[35] la_data_out[36] la_data_out[37] la_data_out[38] la_data_out[39]
+ la_data_out[3] la_data_out[40] la_data_out[41] la_data_out[42] la_data_out[43] la_data_out[44]
+ la_data_out[45] la_data_out[46] la_data_out[47] la_data_out[48] la_data_out[49]
+ la_data_out[4] la_data_out[50] la_data_out[51] la_data_out[52] la_data_out[53] la_data_out[54]
+ la_data_out[55] la_data_out[56] la_data_out[57] la_data_out[58] la_data_out[59]
+ la_data_out[5] la_data_out[60] la_data_out[61] la_data_out[62] la_data_out[63] la_data_out[64]
+ la_data_out[65] la_data_out[66] la_data_out[67] la_data_out[68] la_data_out[69]
+ la_data_out[6] la_data_out[70] la_data_out[71] la_data_out[72] la_data_out[73] la_data_out[74]
+ la_data_out[75] la_data_out[76] la_data_out[77] la_data_out[78] la_data_out[79]
+ la_data_out[7] la_data_out[80] la_data_out[81] la_data_out[82] la_data_out[83] la_data_out[84]
+ la_data_out[85] la_data_out[86] la_data_out[87] la_data_out[88] la_data_out[89]
+ la_data_out[8] la_data_out[90] la_data_out[91] la_data_out[92] la_data_out[93] la_data_out[94]
+ la_data_out[95] la_data_out[96] la_data_out[97] la_data_out[98] la_data_out[99]
+ la_data_out[9] la_oenb[0] la_oenb[100] la_oenb[101] la_oenb[102] la_oenb[103] la_oenb[104]
+ la_oenb[105] la_oenb[106] la_oenb[107] la_oenb[108] la_oenb[109] la_oenb[10] la_oenb[110]
+ la_oenb[111] la_oenb[112] la_oenb[113] la_oenb[114] la_oenb[115] la_oenb[116] la_oenb[117]
+ la_oenb[118] la_oenb[119] la_oenb[11] la_oenb[120] la_oenb[121] la_oenb[122] la_oenb[123]
+ la_oenb[124] la_oenb[125] la_oenb[126] la_oenb[127] la_oenb[12] la_oenb[13] la_oenb[14]
+ la_oenb[15] la_oenb[16] la_oenb[17] la_oenb[18] la_oenb[19] la_oenb[1] la_oenb[20]
+ la_oenb[21] la_oenb[22] la_oenb[23] la_oenb[24] la_oenb[25] la_oenb[26] la_oenb[27]
+ la_oenb[28] la_oenb[29] la_oenb[2] la_oenb[30] la_oenb[31] la_oenb[32] la_oenb[33]
+ la_oenb[34] la_oenb[35] la_oenb[36] la_oenb[37] la_oenb[38] la_oenb[39] la_oenb[3]
+ la_oenb[40] la_oenb[41] la_oenb[42] la_oenb[43] la_oenb[44] la_oenb[45] la_oenb[46]
+ la_oenb[47] la_oenb[48] la_oenb[49] la_oenb[4] la_oenb[50] la_oenb[51] la_oenb[52]
+ la_oenb[53] la_oenb[54] la_oenb[55] la_oenb[56] la_oenb[57] la_oenb[58] la_oenb[59]
+ la_oenb[5] la_oenb[60] la_oenb[61] la_oenb[62] la_oenb[63] la_oenb[64] la_oenb[65]
+ la_oenb[66] la_oenb[67] la_oenb[68] la_oenb[69] la_oenb[6] la_oenb[70] la_oenb[71]
+ la_oenb[72] la_oenb[73] la_oenb[74] la_oenb[75] la_oenb[76] la_oenb[77] la_oenb[78]
+ la_oenb[79] la_oenb[7] la_oenb[80] la_oenb[81] la_oenb[82] la_oenb[83] la_oenb[84]
+ la_oenb[85] la_oenb[86] la_oenb[87] la_oenb[88] la_oenb[89] la_oenb[8] la_oenb[90]
+ la_oenb[91] la_oenb[92] la_oenb[93] la_oenb[94] la_oenb[95] la_oenb[96] la_oenb[97]
+ la_oenb[98] la_oenb[99] la_oenb[9] user_clock2 user_irq[0] user_irq[1] user_irq[2]
+ vccd1 vccd2 vdda1 vdda2 vssa1 vssa2 vssd1 vssd2 wb_clk_i wb_rst_i wbs_ack_o wbs_adr_i[0]
+ wbs_adr_i[10] wbs_adr_i[11] wbs_adr_i[12] wbs_adr_i[13] wbs_adr_i[14] wbs_adr_i[15]
+ wbs_adr_i[16] wbs_adr_i[17] wbs_adr_i[18] wbs_adr_i[19] wbs_adr_i[1] wbs_adr_i[20]
+ wbs_adr_i[21] wbs_adr_i[22] wbs_adr_i[23] wbs_adr_i[24] wbs_adr_i[25] wbs_adr_i[26]
+ wbs_adr_i[27] wbs_adr_i[28] wbs_adr_i[29] wbs_adr_i[2] wbs_adr_i[30] wbs_adr_i[31]
+ wbs_adr_i[3] wbs_adr_i[4] wbs_adr_i[5] wbs_adr_i[6] wbs_adr_i[7] wbs_adr_i[8] wbs_adr_i[9]
+ wbs_cyc_i wbs_dat_i[0] wbs_dat_i[10] wbs_dat_i[11] wbs_dat_i[12] wbs_dat_i[13] wbs_dat_i[14]
+ wbs_dat_i[15] wbs_dat_i[16] wbs_dat_i[17] wbs_dat_i[18] wbs_dat_i[19] wbs_dat_i[1]
+ wbs_dat_i[20] wbs_dat_i[21] wbs_dat_i[22] wbs_dat_i[23] wbs_dat_i[24] wbs_dat_i[25]
+ wbs_dat_i[26] wbs_dat_i[27] wbs_dat_i[28] wbs_dat_i[29] wbs_dat_i[2] wbs_dat_i[30]
+ wbs_dat_i[31] wbs_dat_i[3] wbs_dat_i[4] wbs_dat_i[5] wbs_dat_i[6] wbs_dat_i[7] wbs_dat_i[8]
+ wbs_dat_i[9] wbs_dat_o[0] wbs_dat_o[10] wbs_dat_o[11] wbs_dat_o[12] wbs_dat_o[13]
+ wbs_dat_o[14] wbs_dat_o[15] wbs_dat_o[16] wbs_dat_o[17] wbs_dat_o[18] wbs_dat_o[19]
+ wbs_dat_o[1] wbs_dat_o[20] wbs_dat_o[21] wbs_dat_o[22] wbs_dat_o[23] wbs_dat_o[24]
+ wbs_dat_o[25] wbs_dat_o[26] wbs_dat_o[27] wbs_dat_o[28] wbs_dat_o[29] wbs_dat_o[2]
+ wbs_dat_o[30] wbs_dat_o[31] wbs_dat_o[3] wbs_dat_o[4] wbs_dat_o[5] wbs_dat_o[6]
+ wbs_dat_o[7] wbs_dat_o[8] wbs_dat_o[9] wbs_sel_i[0] wbs_sel_i[1] wbs_sel_i[2] wbs_sel_i[3]
+ wbs_stb_i wbs_we_i
C0 pll_full_0/divider_0/prescaler_0/tspc_2/Z4 pll_full_0/divider_0/prescaler_0/tspc_1/Q 0.21fF
C1 pll_full_0/divider_0/prescaler_0/tspc_2/Z1 pll_full_0/divider_0/prescaler_0/tspc_2/D 0.03fF
C2 pll_full_0/divider_0/prescaler_0/m1_2700_2190# pll_full_0/divider_0/clk 0.01fF
C3 pll_full_0/divbuf_0/a_14400_n1600# pll_full_0/divbuf_0/a_14430_n840# 0.04fF
C4 divbuf_2/a_53310_n1540# divbuf_2/a_53790_n1540# 0.11fF
C5 pd_div_0/divbuf_0/a_18092_n240# pd_div_0/divbuf_0/a_17790_n840# 0.00fF
C6 divbuf_0/a_18582_170# divbuf_0/OUT4 0.19fF
C7 divbuf_0/a_5280_n1600# divbuf_0/a_5310_n840# 0.04fF
C8 divbuf_3/a_14222_n240# divbuf_3/a_14430_n840# 0.02fF
C9 divbuf_3/a_23520_n1600# divbuf_3/a_24000_n1600# 0.26fF
C10 ro_div_0/divbuf_0/a_9732_n240# ro_div_0/divbuf_0/a_9630_n840# 0.03fF
C11 ro_div_0/divbuf_0/a_19200_n1600# ro_div_0/divbuf_0/a_19680_n1600# 0.26fF
C12 divbuf_3/a_15870_n1540# divbuf_3/a_16350_n1540# 0.11fF
C13 divbuf_3/a_46590_n840# divbuf_3/a_46590_n1540# 0.01fF
C14 pd_div_0/divbuf_0/a_26910_n840# pd_div_0/divbuf_0/a_27390_n840# 0.07fF
C15 pd_div_0/divbuf_0/a_31682_n240# pd_div_0/divbuf_0/OUT4 0.04fF
C16 pd_div_0/divbuf_0/a_26880_n1600# pd_div_0/divbuf_0/a_26910_n1540# 0.19fF
C17 pd_div_0/divider_0/tspc_0/Q pd_div_0/divider_0/tspc_0/a_630_n680# 0.04fF
C18 ro_div_0/divbuf_0/a_42270_n840# ro_div_0/divbuf_0/a_42270_n1540# 0.01fF
C19 ro_div_0/divbuf_0/a_11550_n1540# ro_div_0/divbuf_0/a_12030_n1540# 0.11fF
C20 pll_full_0/divbuf_0/a_31202_170# pll_full_0/divbuf_0/a_31682_170# 0.07fF
C21 divbuf_2/a_50880_n1600# divbuf_2/a_50910_n840# 0.04fF
C22 divbuf_2/a_18582_n240# divbuf_2/OUT4 0.04fF
C23 divbuf_0/a_2322_170# divbuf_0/a_2322_n240# 0.01fF
C24 divbuf_0/a_21982_170# divbuf_0/a_22472_170# 0.07fF
C25 pll_full_0/divbuf_0/a_3870_n840# pll_full_0/divbuf_0/a_4350_n840# 0.07fF
C26 pll_full_0/divbuf_0/a_24412_170# pll_full_0/divbuf_0/OUT4 0.19fF
C27 pll_full_0/divbuf_0/a_3840_n1600# pll_full_0/divbuf_0/a_3870_n1540# 0.19fF
C28 divbuf_1/a_24480_n1600# divbuf_1/a_24960_n1600# 0.26fF
C29 divbuf_1/a_15182_n240# divbuf_1/a_15390_n840# 0.02fF
C30 ro_div_0/ro_complete_0/a5 ro_div_0/ro_complete_0/cbank_2/switch_0/vin 0.09fF
C31 divbuf_0/a_55200_n1600# divbuf_0/a_55680_n1600# 0.26fF
C32 pll_full_0/divbuf_0/a_56670_n1540# pll_full_0/divbuf_0/a_57150_n1540# 0.11fF
C33 divbuf_3/a_13440_n1600# divbuf_3/a_13470_n840# 0.04fF
C34 divbuf_1/a_16830_n1540# divbuf_1/a_17310_n1540# 0.11fF
C35 divbuf_1/a_47550_n840# divbuf_1/a_47550_n1540# 0.01fF
C36 ro_div_0/divbuf_0/a_9120_n1600# ro_div_0/divbuf_0/a_9150_n840# 0.04fF
C37 divbuf_0/a_47550_n1540# divbuf_0/a_48030_n1540# 0.11fF
C38 divbuf_2/a_28772_n240# divbuf_2/a_29262_n240# 0.04fF
C39 pll_full_0/divbuf_1/a_26880_n1600# pll_full_0/divbuf_1/a_27360_n1600# 0.26fF
C40 pll_full_0/divbuf_1/a_17612_n240# pll_full_0/divbuf_1/a_17790_n840# 0.02fF
C41 pll_full_0/divbuf_1/a_19230_n1540# pll_full_0/divbuf_1/a_19710_n1540# 0.11fF
C42 pll_full_0/divbuf_1/a_49950_n840# pll_full_0/divbuf_1/a_49950_n1540# 0.01fF
C43 divbuf_2/a_10110_n840# divbuf_2/a_10110_n1540# 0.01fF
C44 divbuf_2/a_40350_n840# divbuf_2/a_40830_n840# 0.07fF
C45 divbuf_2/a_40320_n1600# divbuf_2/a_40350_n1540# 0.19fF
C46 pd_div_0/divider_0/and_0/OUT pd_div_0/divider_0/clk 0.04fF
C47 pll_full_0/divbuf_0/a_25382_n240# pll_full_0/divbuf_0/OUT4 0.04fF
C48 pll_full_0/divbuf_0/a_54240_n1600# pll_full_0/divbuf_0/a_54270_n840# 0.04fF
C49 divbuf_3/a_10212_170# divbuf_3/a_10212_n240# 0.01fF
C50 divbuf_3/a_30232_170# divbuf_3/a_30712_170# 0.07fF
C51 divbuf_1/a_14400_n1600# divbuf_1/a_14430_n840# 0.04fF
C52 pd_div_0/divbuf_0/a_29742_170# pd_div_0/divbuf_0/OUT4 0.19fF
C53 ro_div_0/divbuf_0/a_12772_170# ro_div_0/divbuf_0/a_12772_n240# 0.01fF
C54 ro_div_0/divbuf_0/a_25862_170# ro_div_0/divbuf_0/a_26352_170# 0.07fF
C55 divbuf_0/a_45120_n1600# divbuf_0/a_45150_n840# 0.04fF
C56 divbuf_0/a_6822_n240# divbuf_0/OUT3 0.04fF
C57 divbuf_3/a_2910_n840# divbuf_3/a_3390_n840# 0.07fF
C58 divbuf_3/a_22472_170# divbuf_3/OUT4 0.19fF
C59 divbuf_3/a_2880_n1600# divbuf_3/a_2910_n1540# 0.19fF
C60 pd_div_0/divbuf_0/a_13440_n1600# pd_div_0/divbuf_0/a_13920_n1600# 0.26fF
C61 pd_div_0/pd_0/tspc_r_0/Z3 pd_div_0/pd_0/DOWN 0.03fF
C62 ro_div_0/divbuf_0/a_15182_170# ro_div_0/divbuf_0/OUT4 0.19fF
C63 ro_div_0/divbuf_0/a_59040_n1600# ro_div_0/divbuf_0/a_59520_n1600# 0.26fF
C64 pd_div_0/divbuf_0/a_5790_n1540# pd_div_0/divbuf_0/a_6270_n1540# 0.11fF
C65 pd_div_0/divbuf_0/a_36510_n840# pd_div_0/divbuf_0/a_36510_n1540# 0.01fF
C66 pll_full_0/divbuf_1/a_16800_n1600# pll_full_0/divbuf_1/a_16830_n840# 0.04fF
C67 divbuf_3/a_55710_n1540# divbuf_3/a_56190_n1540# 0.11fF
C68 ro_div_0/divbuf_0/a_51390_n1540# ro_div_0/divbuf_0/a_51870_n1540# 0.11fF
C69 pll_full_0/divbuf_0/a_32172_n240# pll_full_0/divbuf_0/a_32652_n240# 0.05fF
C70 divbuf_1/a_27802_170# divbuf_1/a_28292_170# 0.07fF
C71 pd_div_0/divbuf_0/a_34592_170# pd_div_0/divbuf_0/a_34592_n240# 0.01fF
C72 divbuf_0/a_22952_n240# divbuf_0/a_23442_n240# 0.04fF
C73 pll_full_0/divbuf_0/a_23520_n1600# pll_full_0/divbuf_0/OUT4 0.00fF
C74 pll_full_0/divbuf_0/a_43680_n1600# pll_full_0/divbuf_0/a_43710_n1540# 0.19fF
C75 pll_full_0/divbuf_0/a_13470_n840# pll_full_0/divbuf_0/a_13470_n1540# 0.01fF
C76 pll_full_0/divbuf_0/a_43710_n840# pll_full_0/divbuf_0/a_44190_n840# 0.07fF
C77 divbuf_1/a_3870_n840# divbuf_1/a_4350_n840# 0.07fF
C78 divbuf_1/a_21012_170# divbuf_1/OUT4 0.19fF
C79 divbuf_1/a_3840_n1600# divbuf_1/a_3870_n1540# 0.19fF
C80 divbuf_0/a_34590_n840# divbuf_0/a_35070_n840# 0.07fF
C81 divbuf_0/a_4350_n840# divbuf_0/a_4350_n1540# 0.01fF
C82 divbuf_0/a_34560_n1600# divbuf_0/a_34590_n1540# 0.19fF
C83 pll_full_0/divbuf_1/a_14222_170# pll_full_0/divbuf_1/a_14222_n240# 0.01fF
C84 pll_full_0/divbuf_1/a_33622_170# pll_full_0/divbuf_1/a_34112_170# 0.07fF
C85 divbuf_3/a_53280_n1600# divbuf_3/a_53310_n840# 0.04fF
C86 divbuf_3/a_23442_n240# divbuf_3/OUT4 0.04fF
C87 divbuf_1/a_56670_n1540# divbuf_1/a_57150_n1540# 0.11fF
C88 pd_div_0/divbuf_0/a_3360_n1600# pd_div_0/divbuf_0/a_3390_n840# 0.04fF
C89 ro_div_0/divbuf_0/a_48960_n1600# ro_div_0/divbuf_0/a_48990_n840# 0.04fF
C90 ro_div_0/divbuf_0/a_14702_n240# ro_div_0/divbuf_0/OUT4 0.04fF
C91 divbuf_2/a_26880_n1600# divbuf_2/a_27360_n1600# 0.26fF
C92 divbuf_2/a_17612_n240# divbuf_2/a_17790_n840# 0.02fF
C93 pll_full_0/divbuf_1/a_6270_n840# pll_full_0/divbuf_1/a_6750_n840# 0.07fF
C94 pll_full_0/divbuf_1/a_29262_170# pll_full_0/divbuf_1/OUT4 0.19fF
C95 pll_full_0/divbuf_1/a_6240_n1600# pll_full_0/divbuf_1/a_6270_n1540# 0.19fF
C96 pll_full_0/pd_0/DOWN pll_full_0/pd_0/and_pd_0/Z1 0.07fF
C97 ro_complete_0/a5 ro_complete_0/cbank_1/switch_0/vin 0.09fF
C98 pll_full_0/divbuf_1/a_59070_n1540# pll_full_0/divbuf_1/a_59550_n1540# 0.11fF
C99 divbuf_2/a_19230_n1540# divbuf_2/a_19710_n1540# 0.11fF
C100 divbuf_2/a_49950_n840# divbuf_2/a_49950_n1540# 0.01fF
C101 divbuf_1/a_30232_170# divbuf_1/a_30232_n240# 0.01fF
C102 divbuf_3/a_31202_n240# divbuf_3/a_31682_n240# 0.05fF
C103 divbuf_1/a_25382_n240# divbuf_1/OUT4 0.04fF
C104 divbuf_1/a_54240_n1600# divbuf_1/a_54270_n840# 0.04fF
C105 ro_div_0/divbuf_0/a_26832_n240# ro_div_0/divbuf_0/a_27322_n240# 0.04fF
C106 divbuf_3/a_21600_n1600# divbuf_3/OUT4 0.01fF
C107 divbuf_3/a_42720_n1600# divbuf_3/a_42750_n1540# 0.19fF
C108 divbuf_3/a_12510_n840# divbuf_3/a_12510_n1540# 0.01fF
C109 divbuf_3/a_42750_n840# divbuf_3/a_43230_n840# 0.07fF
C110 pd_div_0/divbuf_0/a_53280_n1600# pd_div_0/divbuf_0/a_53760_n1600# 0.26fF
C111 ro_div_0/divbuf_0/a_38400_n1600# ro_div_0/divbuf_0/a_38430_n1540# 0.19fF
C112 ro_div_0/divbuf_0/a_12960_n1600# ro_div_0/divbuf_0/OUT4 0.00fF
C113 ro_div_0/divbuf_0/a_38430_n840# ro_div_0/divbuf_0/a_38910_n840# 0.07fF
C114 ro_div_0/divbuf_0/a_8190_n840# ro_div_0/divbuf_0/a_8190_n1540# 0.01fF
C115 divbuf_2/a_16800_n1600# divbuf_2/a_16830_n840# 0.04fF
C116 pd_div_0/divbuf_0/a_45630_n1540# pd_div_0/divbuf_0/a_46110_n1540# 0.11fF
C117 pll_full_0/divbuf_1/a_30232_n240# pll_full_0/divbuf_1/OUT4 0.04fF
C118 pll_full_0/divbuf_1/a_56640_n1600# pll_full_0/divbuf_1/a_56670_n840# 0.04fF
C119 ro_div_0/divider_0/nor_1/B ro_div_0/divider_0/tspc_2/Z4 0.02fF
C120 pll_full_0/divider_0/tspc_0/Q pll_full_0/divider_0/tspc_1/Z3 0.45fF
C121 pll_full_0/divbuf_0/a_30240_n1600# pll_full_0/divbuf_0/a_30720_n1600# 0.26fF
C122 pll_full_0/divbuf_0/a_21012_n240# pll_full_0/divbuf_0/a_21150_n840# 0.03fF
C123 divbuf_1/a_32172_n240# divbuf_1/a_32652_n240# 0.05fF
C124 pd_div_0/divbuf_0/a_3422_n240# pd_div_0/divbuf_0/a_3390_n840# 0.05fF
C125 pd_0/tspc_r_0/Z2 pd_0/tspc_r_0/Z4 0.14fF
C126 divbuf_0/a_21120_n1600# divbuf_0/a_21600_n1600# 0.26fF
C127 divbuf_0/a_11802_n240# divbuf_0/a_12030_n840# 0.02fF
C128 pll_full_0/divbuf_0/a_22590_n1540# pll_full_0/divbuf_0/a_23070_n1540# 0.11fF
C129 pll_full_0/divbuf_0/a_53310_n840# pll_full_0/divbuf_0/a_53310_n1540# 0.01fF
C130 divbuf_1/a_23520_n1600# divbuf_1/OUT4 0.00fF
C131 divbuf_1/a_43680_n1600# divbuf_1/a_43710_n1540# 0.19fF
C132 divbuf_1/a_13470_n840# divbuf_1/a_13470_n1540# 0.01fF
C133 divbuf_1/a_43710_n840# divbuf_1/a_44190_n840# 0.07fF
C134 divbuf_0/a_44190_n840# divbuf_0/a_44190_n1540# 0.01fF
C135 divbuf_0/a_13470_n1540# divbuf_0/a_13950_n1540# 0.11fF
C136 divbuf_2/a_14222_170# divbuf_2/a_14222_n240# 0.01fF
C137 divbuf_2/a_33622_170# divbuf_2/a_34112_170# 0.07fF
C138 pd_div_0/divbuf_0/a_43200_n1600# pd_div_0/divbuf_0/a_43230_n840# 0.04fF
C139 pll_full_0/divbuf_1/a_34592_n240# pll_full_0/divbuf_1/a_35082_n240# 0.04fF
C140 pd_div_0/divbuf_0/a_14222_n240# pd_div_0/divbuf_0/a_14702_n240# 0.05fF
C141 pll_full_0/divbuf_1/a_46080_n1600# pll_full_0/divbuf_1/a_46110_n1540# 0.19fF
C142 pll_full_0/divbuf_1/a_15870_n840# pll_full_0/divbuf_1/a_15870_n1540# 0.01fF
C143 pll_full_0/divbuf_1/a_46110_n840# pll_full_0/divbuf_1/a_46590_n840# 0.07fF
C144 divbuf_2/a_6270_n840# divbuf_2/a_6750_n840# 0.07fF
C145 divbuf_2/a_29262_170# divbuf_2/OUT4 0.19fF
C146 divbuf_2/a_6240_n1600# divbuf_2/a_6270_n1540# 0.19fF
C147 ro_complete_0/cbank_0/switch_3/vin ro_complete_0/cbank_0/v 1.30fF
C148 pll_full_0/divbuf_0/a_20160_n1600# pll_full_0/divbuf_0/a_20190_n840# 0.04fF
C149 divbuf_2/a_59070_n1540# divbuf_2/a_59550_n1540# 0.11fF
C150 divbuf_0/a_11040_n1600# divbuf_0/a_11070_n840# 0.04fF
C151 divbuf_3/a_29280_n1600# divbuf_3/a_29760_n1600# 0.26fF
C152 divbuf_3/a_20042_n240# divbuf_3/a_20190_n840# 0.03fF
C153 ro_div_0/divbuf_0/a_15672_n240# ro_div_0/divbuf_0/a_15870_n840# 0.02fF
C154 ro_div_0/divbuf_0/a_24960_n1600# ro_div_0/divbuf_0/a_25440_n1600# 0.26fF
C155 divbuf_3/a_21630_n1540# divbuf_3/a_22110_n1540# 0.11fF
C156 divbuf_3/a_52350_n840# divbuf_3/a_52350_n1540# 0.01fF
C157 pd_div_0/divbuf_0/a_2400_n1600# pd_div_0/divbuf_0/OUT2 0.00fF
C158 pd_div_0/divbuf_0/a_32640_n1600# pd_div_0/divbuf_0/a_32670_n1540# 0.19fF
C159 pd_div_0/divbuf_0/a_2430_n840# pd_div_0/divbuf_0/a_2430_n1540# 0.01fF
C160 pd_div_0/divbuf_0/a_32670_n840# pd_div_0/divbuf_0/a_33150_n840# 0.07fF
C161 ro_div_0/divbuf_0/a_48030_n840# ro_div_0/divbuf_0/a_48030_n1540# 0.01fF
C162 ro_div_0/divbuf_0/a_17310_n1540# ro_div_0/divbuf_0/a_17790_n1540# 0.11fF
C163 pd_div_0/divider_0/tspc_1/Z3 pd_div_0/divider_0/tspc_1/Q 0.05fF
C164 pd_div_0/divider_0/prescaler_0/tspc_0/Z3 pd_div_0/divider_0/prescaler_0/tspc_0/D 0.05fF
C165 pll_full_0/divbuf_0/a_37022_170# pll_full_0/divbuf_0/a_37502_170# 0.07fF
C166 divbuf_2/a_30232_n240# divbuf_2/OUT4 0.04fF
C167 divbuf_2/a_56640_n1600# divbuf_2/a_56670_n840# 0.04fF
C168 divbuf_0/a_27802_170# divbuf_0/a_28292_170# 0.07fF
C169 pll_full_0/divbuf_0/a_9600_n1600# pll_full_0/divbuf_0/a_9630_n1540# 0.19fF
C170 pll_full_0/divbuf_0/a_9630_n840# pll_full_0/divbuf_0/a_10110_n840# 0.07fF
C171 pll_full_0/divbuf_0/a_36052_170# pll_full_0/divbuf_0/OUT4 0.19fF
C172 divbuf_1/a_30240_n1600# divbuf_1/a_30720_n1600# 0.26fF
C173 divbuf_1/a_21012_n240# divbuf_1/a_21150_n840# 0.03fF
C174 ro_div_0/ro_complete_0/a1 ro_div_0/ro_complete_0/cbank_2/v 0.05fF
C175 divbuf_0/a_15182_170# divbuf_0/OUT4 0.19fF
C176 divbuf_0/a_480_n1600# divbuf_0/a_510_n1540# 0.19fF
C177 divbuf_0/a_510_n840# divbuf_0/a_990_n840# 0.07fF
C178 pll_full_0/divbuf_0/a_60990_n1540# pll_full_0/divbuf_0/OUT5 0.19fF
C179 divbuf_3/a_19200_n1600# divbuf_3/a_19230_n840# 0.04fF
C180 divbuf_1/a_22590_n1540# divbuf_1/a_23070_n1540# 0.11fF
C181 divbuf_1/a_53310_n840# divbuf_1/a_53310_n1540# 0.01fF
C182 ro_div_0/divbuf_0/a_14880_n1600# ro_div_0/divbuf_0/a_14910_n840# 0.04fF
C183 divbuf_0/a_53310_n1540# divbuf_0/a_53790_n1540# 0.11fF
C184 divbuf_2/a_34592_n240# divbuf_2/a_35082_n240# 0.04fF
C185 pll_full_0/divbuf_1/a_23442_n240# pll_full_0/divbuf_1/a_23550_n840# 0.03fF
C186 pll_full_0/divbuf_1/a_32640_n1600# pll_full_0/divbuf_1/a_33120_n1600# 0.26fF
C187 divbuf_1/a_17612_170# divbuf_1/a_17612_n240# 0.01fF
C188 pll_full_0/divbuf_1/a_24990_n1540# pll_full_0/divbuf_1/a_25470_n1540# 0.11fF
C189 pll_full_0/divbuf_1/a_55710_n840# pll_full_0/divbuf_1/a_55710_n1540# 0.01fF
C190 divbuf_2/a_46080_n1600# divbuf_2/a_46110_n1540# 0.19fF
C191 divbuf_2/a_15870_n840# divbuf_2/a_15870_n1540# 0.01fF
C192 divbuf_2/a_46110_n840# divbuf_2/a_46590_n840# 0.07fF
C193 pll_full_0/divbuf_0/a_37022_n240# pll_full_0/divbuf_0/OUT4 0.04fF
C194 pll_full_0/divbuf_0/a_60000_n1600# pll_full_0/divbuf_0/a_60030_n840# 0.04fF
C195 divbuf_3/a_16642_170# divbuf_3/a_16642_n240# 0.01fF
C196 divbuf_3/a_36052_170# divbuf_3/a_36532_170# 0.07fF
C197 divbuf_1/a_20160_n1600# divbuf_1/a_20190_n840# 0.04fF
C198 pd_div_0/divbuf_0/a_1842_n240# pd_div_0/divbuf_0/OUT2 0.04fF
C199 pd_div_0/divbuf_0/a_41382_170# pd_div_0/divbuf_0/OUT4 0.19fF
C200 ro_div_0/divbuf_0/a_31682_170# ro_div_0/divbuf_0/a_32172_170# 0.07fF
C201 divbuf_0/a_18582_n240# divbuf_0/OUT4 0.04fF
C202 divbuf_0/a_50880_n1600# divbuf_0/a_50910_n840# 0.04fF
C203 divbuf_3/a_8640_n1600# divbuf_3/a_8670_n1540# 0.19fF
C204 divbuf_3/a_8670_n840# divbuf_3/a_9150_n840# 0.07fF
C205 divbuf_3/a_34112_170# divbuf_3/OUT4 0.19fF
C206 pd_div_0/divbuf_0/a_19200_n1600# pd_div_0/divbuf_0/a_19680_n1600# 0.26fF
C207 ro_div_0/divbuf_0/a_4320_n1600# ro_div_0/divbuf_0/a_4350_n1540# 0.19fF
C208 ro_div_0/divbuf_0/a_25382_170# ro_div_0/divbuf_0/OUT4 0.19fF
C209 ro_div_0/divbuf_0/a_4350_n840# ro_div_0/divbuf_0/a_4830_n840# 0.07fF
C210 pd_div_0/divbuf_0/a_11550_n1540# pd_div_0/divbuf_0/a_12030_n1540# 0.11fF
C211 pd_div_0/divbuf_0/a_42270_n840# pd_div_0/divbuf_0/a_42270_n1540# 0.01fF
C212 pll_full_0/divbuf_1/a_22560_n1600# pll_full_0/divbuf_1/a_22590_n840# 0.04fF
C213 ro_div_0/divbuf_0/a_57150_n1540# ro_div_0/divbuf_0/a_57630_n1540# 0.11fF
C214 pll_full_0/divbuf_0/a_37992_n240# pll_full_0/divbuf_0/a_38472_n240# 0.05fF
C215 divbuf_1/a_37022_170# divbuf_1/a_37502_170# 0.07fF
C216 pd_div_0/divbuf_0/a_40412_170# pd_div_0/divbuf_0/a_40412_n240# 0.01fF
C217 divbuf_0/a_28772_n240# divbuf_0/a_29262_n240# 0.04fF
C218 pll_full_0/divbuf_0/a_19230_n840# pll_full_0/divbuf_0/a_19230_n1540# 0.01fF
C219 pll_full_0/divbuf_0/a_49470_n840# pll_full_0/divbuf_0/a_49950_n840# 0.07fF
C220 pll_full_0/divbuf_0/a_35040_n1600# pll_full_0/divbuf_0/OUT4 0.00fF
C221 pll_full_0/divbuf_0/a_49440_n1600# pll_full_0/divbuf_0/a_49470_n1540# 0.19fF
C222 divbuf_1/a_9600_n1600# divbuf_1/a_9630_n1540# 0.19fF
C223 divbuf_1/a_9630_n840# divbuf_1/a_10110_n840# 0.07fF
C224 divbuf_1/a_36052_170# divbuf_1/OUT4 0.19fF
C225 divbuf_0/a_40320_n1600# divbuf_0/a_40350_n1540# 0.19fF
C226 divbuf_0/a_40350_n840# divbuf_0/a_40830_n840# 0.07fF
C227 divbuf_0/a_10110_n840# divbuf_0/a_10110_n1540# 0.01fF
C228 pll_full_0/divbuf_1/a_20042_170# pll_full_0/divbuf_1/a_20042_n240# 0.01fF
C229 pll_full_0/divbuf_1/a_39442_170# pll_full_0/divbuf_1/a_39932_170# 0.07fF
C230 divbuf_3/a_35082_n240# divbuf_3/OUT4 0.04fF
C231 divbuf_3/a_59040_n1600# divbuf_3/a_59070_n840# 0.04fF
C232 divbuf_1/a_60990_n1540# divbuf_1/OUT5 0.19fF
C233 pd_div_0/divbuf_0/a_9120_n1600# pd_div_0/divbuf_0/a_9150_n840# 0.04fF
C234 pd_div_0/divbuf_0/a_19072_170# pd_div_0/divbuf_0/a_19562_170# 0.07fF
C235 ro_div_0/divbuf_0/a_54720_n1600# ro_div_0/divbuf_0/a_54750_n840# 0.04fF
C236 ro_div_0/divbuf_0/a_26352_n240# ro_div_0/divbuf_0/OUT4 0.04fF
C237 divbuf_2/a_23442_n240# divbuf_2/a_23550_n840# 0.03fF
C238 divbuf_2/a_32640_n1600# divbuf_2/a_33120_n1600# 0.26fF
C239 pll_full_0/divbuf_1/a_12000_n1600# pll_full_0/divbuf_1/a_12030_n1540# 0.19fF
C240 pll_full_0/divbuf_1/a_1352_n240# pll_full_0/divbuf_1/OUT2 0.07fF
C241 pll_full_0/divbuf_1/a_12030_n840# pll_full_0/divbuf_1/a_12510_n840# 0.07fF
C242 pll_full_0/divbuf_1/a_40902_170# pll_full_0/divbuf_1/OUT4 0.19fF
C243 ro_div_0/divider_0/prescaler_0/tspc_0/Z1 ro_div_0/divider_0/prescaler_0/tspc_0/Z4 0.00fF
C244 divbuf_2/a_24990_n1540# divbuf_2/a_25470_n1540# 0.11fF
C245 divbuf_2/a_55710_n840# divbuf_2/a_55710_n1540# 0.01fF
C246 divbuf_3/a_37022_n240# divbuf_3/a_37502_n240# 0.05fF
C247 divbuf_1/a_37022_n240# divbuf_1/OUT4 0.04fF
C248 divbuf_1/a_60000_n1600# divbuf_1/a_60030_n840# 0.04fF
C249 ro_div_0/divbuf_0/a_32652_n240# ro_div_0/divbuf_0/a_33142_n240# 0.04fF
C250 divbuf_3/a_18270_n840# divbuf_3/a_18270_n1540# 0.01fF
C251 divbuf_3/a_48510_n840# divbuf_3/a_48990_n840# 0.07fF
C252 divbuf_3/a_33120_n1600# divbuf_3/OUT4 0.01fF
C253 divbuf_3/a_48480_n1600# divbuf_3/a_48510_n1540# 0.19fF
C254 pd_div_0/divbuf_0/a_59040_n1600# pd_div_0/divbuf_0/a_59520_n1600# 0.26fF
C255 ro_div_0/divbuf_0/a_44190_n840# ro_div_0/divbuf_0/a_44670_n840# 0.07fF
C256 ro_div_0/divbuf_0/a_13950_n840# ro_div_0/divbuf_0/a_13950_n1540# 0.01fF
C257 ro_div_0/divbuf_0/a_44160_n1600# ro_div_0/divbuf_0/a_44190_n1540# 0.19fF
C258 ro_div_0/divbuf_0/a_24480_n1600# ro_div_0/divbuf_0/OUT4 0.00fF
C259 divbuf_2/a_492_n240# divbuf_2/IN 0.13fF
C260 divbuf_2/a_22560_n1600# divbuf_2/a_22590_n840# 0.04fF
C261 pd_div_0/divbuf_0/a_51390_n1540# pd_div_0/divbuf_0/a_51870_n1540# 0.11fF
C262 pll_full_0/divbuf_1/a_960_n1600# pll_full_0/divbuf_1/OUT2 0.00fF
C263 pll_full_0/divbuf_1/a_41382_n240# pll_full_0/divbuf_1/OUT5 0.04fF
C264 pll_full_0/ro_complete_0/a3 pll_full_0/ro_complete_0/cbank_2/switch_1/vin 0.13fF
C265 pll_full_0/ro_complete_0/cbank_2/switch_3/vin pll_full_0/ro_complete_0/cbank_2/switch_2/vin 0.20fF
C266 ro_div_0/divider_0/tspc_0/a_630_n680# ro_div_0/divider_0/tspc_0/Z3 0.05fF
C267 pll_full_0/divider_0/prescaler_0/tspc_0/Z2 pll_full_0/divider_0/and_0/OUT 0.05fF
C268 pll_full_0/divbuf_0/a_26832_n240# pll_full_0/divbuf_0/a_26910_n840# 0.04fF
C269 pll_full_0/divbuf_0/a_36000_n1600# pll_full_0/divbuf_0/a_36480_n1600# 0.26fF
C270 divbuf_1/a_37992_n240# divbuf_1/a_38472_n240# 0.05fF
C271 pd_div_0/divbuf_0/a_9242_n240# pd_div_0/divbuf_0/a_9150_n840# 0.03fF
C272 pd_0/REF pd_0/tspc_r_1/Z4 0.02fF
C273 pd_0/UP pd_0/tspc_r_1/Qbar 0.21fF
C274 pd_0/R pd_0/and_pd_0/Out1 0.33fF
C275 cp_0/a_1710_0# cp_0/out 0.84fF
C276 divbuf_0/a_17612_n240# divbuf_0/a_17790_n840# 0.02fF
C277 divbuf_0/a_26880_n1600# divbuf_0/a_27360_n1600# 0.26fF
C278 pll_full_0/divbuf_0/a_28350_n1540# pll_full_0/divbuf_0/a_28830_n1540# 0.11fF
C279 pll_full_0/divbuf_0/a_59070_n840# pll_full_0/divbuf_0/a_59070_n1540# 0.01fF
C280 divbuf_1/a_19230_n840# divbuf_1/a_19230_n1540# 0.01fF
C281 divbuf_1/a_49470_n840# divbuf_1/a_49950_n840# 0.07fF
C282 divbuf_1/a_35040_n1600# divbuf_1/OUT4 0.00fF
C283 divbuf_1/a_49440_n1600# divbuf_1/a_49470_n1540# 0.19fF
C284 divbuf_0/a_49950_n840# divbuf_0/a_49950_n1540# 0.01fF
C285 divbuf_0/a_19230_n1540# divbuf_0/a_19710_n1540# 0.11fF
C286 pll_full_0/divbuf_1/a_40412_n240# pll_full_0/divbuf_1/a_40902_n240# 0.04fF
C287 divbuf_2/a_20042_170# divbuf_2/a_20042_n240# 0.01fF
C288 divbuf_2/a_39442_170# divbuf_2/a_39932_170# 0.07fF
C289 pd_div_0/divbuf_0/a_48960_n1600# pd_div_0/divbuf_0/a_48990_n840# 0.04fF
C290 pd_div_0/divbuf_0/a_20042_n240# pd_div_0/divbuf_0/a_20532_n240# 0.04fF
C291 pll_full_0/divbuf_1/a_21630_n840# pll_full_0/divbuf_1/a_21630_n1540# 0.01fF
C292 pll_full_0/divbuf_1/a_51870_n840# pll_full_0/divbuf_1/a_52350_n840# 0.07fF
C293 pll_full_0/divbuf_1/a_51840_n1600# pll_full_0/divbuf_1/a_51870_n1540# 0.19fF
C294 divbuf_2/a_12000_n1600# divbuf_2/a_12030_n1540# 0.19fF
C295 divbuf_2/a_1352_n240# divbuf_2/OUT2 0.07fF
C296 divbuf_2/a_12030_n840# divbuf_2/a_12510_n840# 0.07fF
C297 divbuf_2/a_40902_170# divbuf_2/OUT4 0.19fF
C298 ro_complete_0/a3 ro_complete_0/cbank_2/v 0.05fF
C299 pll_full_0/divbuf_0/a_6332_170# pll_full_0/divbuf_0/OUT3 0.19fF
C300 pll_full_0/divbuf_0/a_25920_n1600# pll_full_0/divbuf_0/a_25950_n840# 0.04fF
C301 divbuf_0/a_16800_n1600# divbuf_0/a_16830_n840# 0.04fF
C302 divbuf_3/a_25862_n240# divbuf_3/a_25950_n840# 0.03fF
C303 divbuf_3/a_35040_n1600# divbuf_3/a_35520_n1600# 0.26fF
C304 pd_div_0/divbuf_0/a_26832_n240# pd_div_0/divbuf_0/a_27322_n240# 0.04fF
C305 ro_div_0/divbuf_0/a_21502_n240# ro_div_0/divbuf_0/a_21630_n840# 0.03fF
C306 ro_div_0/divbuf_0/a_30720_n1600# ro_div_0/divbuf_0/a_31200_n1600# 0.26fF
C307 divbuf_3/a_27390_n1540# divbuf_3/a_27870_n1540# 0.11fF
C308 divbuf_3/a_58110_n840# divbuf_3/a_58110_n1540# 0.01fF