* SPICE3 file created from user_analog_project_wrapper.ext - technology: sky130A

.subckt user_analog_project_wrapper gpio_analog[0] gpio_analog[10] gpio_analog[11]
+ gpio_analog[12] gpio_analog[13] gpio_analog[14] gpio_analog[15] gpio_analog[16]
+ gpio_analog[17] gpio_analog[1] gpio_analog[2] gpio_analog[3] gpio_analog[4] gpio_analog[5]
+ gpio_analog[6] gpio_analog[7] gpio_analog[8] gpio_analog[9] gpio_noesd[0] gpio_noesd[10]
+ gpio_noesd[11] gpio_noesd[12] gpio_noesd[13] gpio_noesd[14] gpio_noesd[15] gpio_noesd[16]
+ gpio_noesd[17] gpio_noesd[1] gpio_noesd[2] gpio_noesd[3] gpio_noesd[4] gpio_noesd[5]
+ gpio_noesd[6] gpio_noesd[7] gpio_noesd[8] gpio_noesd[9] io_analog[0] io_analog[10]
+ io_analog[1] io_analog[2] io_analog[3] io_analog[4] io_analog[5] io_analog[6] io_analog[7]
+ io_analog[8] io_analog[9] io_clamp_high[0] io_clamp_high[1] io_clamp_high[2] io_clamp_low[0]
+ io_clamp_low[1] io_clamp_low[2] io_in[0] io_in[10] io_in[11] io_in[12] io_in[13]
+ io_in[14] io_in[15] io_in[16] io_in[17] io_in[18] io_in[19] io_in[1] io_in[20] io_in[21]
+ io_in[22] io_in[23] io_in[24] io_in[25] io_in[26] io_in[2] io_in[3] io_in[4] io_in[5]
+ io_in[6] io_in[7] io_in[8] io_in[9] io_in_3v3[0] io_in_3v3[10] io_in_3v3[11] io_in_3v3[12]
+ io_in_3v3[13] io_in_3v3[14] io_in_3v3[15] io_in_3v3[16] io_in_3v3[17] io_in_3v3[18]
+ io_in_3v3[19] io_in_3v3[1] io_in_3v3[20] io_in_3v3[21] io_in_3v3[22] io_in_3v3[23]
+ io_in_3v3[24] io_in_3v3[25] io_in_3v3[26] io_in_3v3[2] io_in_3v3[3] io_in_3v3[4]
+ io_in_3v3[5] io_in_3v3[6] io_in_3v3[7] io_in_3v3[8] io_in_3v3[9] io_oeb[0] io_oeb[10]
+ io_oeb[11] io_oeb[12] io_oeb[13] io_oeb[14] io_oeb[15] io_oeb[16] io_oeb[17] io_oeb[18]
+ io_oeb[19] io_oeb[1] io_oeb[20] io_oeb[21] io_oeb[22] io_oeb[23] io_oeb[24] io_oeb[25]
+ io_oeb[26] io_oeb[2] io_oeb[3] io_oeb[4] io_oeb[5] io_oeb[6] io_oeb[7] io_oeb[8]
+ io_oeb[9] io_out[0] io_out[10] io_out[11] io_out[12] io_out[13] io_out[14] io_out[15]
+ io_out[16] io_out[17] io_out[18] io_out[19] io_out[1] io_out[20] io_out[21] io_out[22]
+ io_out[23] io_out[24] io_out[25] io_out[26] io_out[2] io_out[3] io_out[4] io_out[5]
+ io_out[6] io_out[7] io_out[8] io_out[9] la_data_in[0] la_data_in[100] la_data_in[101]
+ la_data_in[102] la_data_in[103] la_data_in[104] la_data_in[105] la_data_in[106]
+ la_data_in[107] la_data_in[108] la_data_in[109] la_data_in[10] la_data_in[110] la_data_in[111]
+ la_data_in[112] la_data_in[113] la_data_in[114] la_data_in[115] la_data_in[116]
+ la_data_in[117] la_data_in[118] la_data_in[119] la_data_in[11] la_data_in[120] la_data_in[121]
+ la_data_in[122] la_data_in[123] la_data_in[124] la_data_in[125] la_data_in[126]
+ la_data_in[127] la_data_in[12] la_data_in[13] la_data_in[14] la_data_in[15] la_data_in[16]
+ la_data_in[17] la_data_in[18] la_data_in[19] la_data_in[1] la_data_in[20] la_data_in[21]
+ la_data_in[22] la_data_in[23] la_data_in[24] la_data_in[25] la_data_in[26] la_data_in[27]
+ la_data_in[28] la_data_in[29] la_data_in[2] la_data_in[30] la_data_in[31] la_data_in[32]
+ la_data_in[33] la_data_in[34] la_data_in[35] la_data_in[36] la_data_in[37] la_data_in[38]
+ la_data_in[39] la_data_in[3] la_data_in[40] la_data_in[41] la_data_in[42] la_data_in[43]
+ la_data_in[44] la_data_in[45] la_data_in[46] la_data_in[47] la_data_in[48] la_data_in[49]
+ la_data_in[4] la_data_in[50] la_data_in[51] la_data_in[52] la_data_in[53] la_data_in[54]
+ la_data_in[55] la_data_in[56] la_data_in[57] la_data_in[58] la_data_in[59] la_data_in[5]
+ la_data_in[60] la_data_in[61] la_data_in[62] la_data_in[63] la_data_in[64] la_data_in[65]
+ la_data_in[66] la_data_in[67] la_data_in[68] la_data_in[69] la_data_in[6] la_data_in[70]
+ la_data_in[71] la_data_in[72] la_data_in[73] la_data_in[74] la_data_in[75] la_data_in[76]
+ la_data_in[77] la_data_in[78] la_data_in[79] la_data_in[7] la_data_in[80] la_data_in[81]
+ la_data_in[82] la_data_in[83] la_data_in[84] la_data_in[85] la_data_in[86] la_data_in[87]
+ la_data_in[88] la_data_in[89] la_data_in[8] la_data_in[90] la_data_in[91] la_data_in[92]
+ la_data_in[93] la_data_in[94] la_data_in[95] la_data_in[96] la_data_in[97] la_data_in[98]
+ la_data_in[99] la_data_in[9] la_data_out[0] la_data_out[100] la_data_out[101] la_data_out[102]
+ la_data_out[103] la_data_out[104] la_data_out[105] la_data_out[106] la_data_out[107]
+ la_data_out[108] la_data_out[109] la_data_out[10] la_data_out[110] la_data_out[111]
+ la_data_out[112] la_data_out[113] la_data_out[114] la_data_out[115] la_data_out[116]
+ la_data_out[117] la_data_out[118] la_data_out[119] la_data_out[11] la_data_out[120]
+ la_data_out[121] la_data_out[122] la_data_out[123] la_data_out[124] la_data_out[125]
+ la_data_out[126] la_data_out[127] la_data_out[12] la_data_out[13] la_data_out[14]
+ la_data_out[15] la_data_out[16] la_data_out[17] la_data_out[18] la_data_out[19]
+ la_data_out[1] la_data_out[20] la_data_out[21] la_data_out[22] la_data_out[23] la_data_out[24]
+ la_data_out[25] la_data_out[26] la_data_out[27] la_data_out[28] la_data_out[29]
+ la_data_out[2] la_data_out[30] la_data_out[31] la_data_out[32] la_data_out[33] la_data_out[34]
+ la_data_out[35] la_data_out[36] la_data_out[37] la_data_out[38] la_data_out[39]
+ la_data_out[3] la_data_out[40] la_data_out[41] la_data_out[42] la_data_out[43] la_data_out[44]
+ la_data_out[45] la_data_out[46] la_data_out[47] la_data_out[48] la_data_out[49]
+ la_data_out[4] la_data_out[50] la_data_out[51] la_data_out[52] la_data_out[53] la_data_out[54]
+ la_data_out[55] la_data_out[56] la_data_out[57] la_data_out[58] la_data_out[59]
+ la_data_out[5] la_data_out[60] la_data_out[61] la_data_out[62] la_data_out[63] la_data_out[64]
+ la_data_out[65] la_data_out[66] la_data_out[67] la_data_out[68] la_data_out[69]
+ la_data_out[6] la_data_out[70] la_data_out[71] la_data_out[72] la_data_out[73] la_data_out[74]
+ la_data_out[75] la_data_out[76] la_data_out[77] la_data_out[78] la_data_out[79]
+ la_data_out[7] la_data_out[80] la_data_out[81] la_data_out[82] la_data_out[83] la_data_out[84]
+ la_data_out[85] la_data_out[86] la_data_out[87] la_data_out[88] la_data_out[89]
+ la_data_out[8] la_data_out[90] la_data_out[91] la_data_out[92] la_data_out[93] la_data_out[94]
+ la_data_out[95] la_data_out[96] la_data_out[97] la_data_out[98] la_data_out[99]
+ la_data_out[9] la_oenb[0] la_oenb[100] la_oenb[101] la_oenb[102] la_oenb[103] la_oenb[104]
+ la_oenb[105] la_oenb[106] la_oenb[107] la_oenb[108] la_oenb[109] la_oenb[10] la_oenb[110]
+ la_oenb[111] la_oenb[112] la_oenb[113] la_oenb[114] la_oenb[115] la_oenb[116] la_oenb[117]
+ la_oenb[118] la_oenb[119] la_oenb[11] la_oenb[120] la_oenb[121] la_oenb[122] la_oenb[123]
+ la_oenb[124] la_oenb[125] la_oenb[126] la_oenb[127] la_oenb[12] la_oenb[13] la_oenb[14]
+ la_oenb[15] la_oenb[16] la_oenb[17] la_oenb[18] la_oenb[19] la_oenb[1] la_oenb[20]
+ la_oenb[21] la_oenb[22] la_oenb[23] la_oenb[24] la_oenb[25] la_oenb[26] la_oenb[27]
+ la_oenb[28] la_oenb[29] la_oenb[2] la_oenb[30] la_oenb[31] la_oenb[32] la_oenb[33]
+ la_oenb[34] la_oenb[35] la_oenb[36] la_oenb[37] la_oenb[38] la_oenb[39] la_oenb[3]
+ la_oenb[40] la_oenb[41] la_oenb[42] la_oenb[43] la_oenb[44] la_oenb[45] la_oenb[46]
+ la_oenb[47] la_oenb[48] la_oenb[49] la_oenb[4] la_oenb[50] la_oenb[51] la_oenb[52]
+ la_oenb[53] la_oenb[54] la_oenb[55] la_oenb[56] la_oenb[57] la_oenb[58] la_oenb[59]
+ la_oenb[5] la_oenb[60] la_oenb[61] la_oenb[62] la_oenb[63] la_oenb[64] la_oenb[65]
+ la_oenb[66] la_oenb[67] la_oenb[68] la_oenb[69] la_oenb[6] la_oenb[70] la_oenb[71]
+ la_oenb[72] la_oenb[73] la_oenb[74] la_oenb[75] la_oenb[76] la_oenb[77] la_oenb[78]
+ la_oenb[79] la_oenb[7] la_oenb[80] la_oenb[81] la_oenb[82] la_oenb[83] la_oenb[84]
+ la_oenb[85] la_oenb[86] la_oenb[87] la_oenb[88] la_oenb[89] la_oenb[8] la_oenb[90]
+ la_oenb[91] la_oenb[92] la_oenb[93] la_oenb[94] la_oenb[95] la_oenb[96] la_oenb[97]
+ la_oenb[98] la_oenb[99] la_oenb[9] user_clock2 user_irq[0] user_irq[1] user_irq[2]
+ vccd1 vccd2 vdda1 vdda2 vssa2 vssd1 vssd2 wb_clk_i wb_rst_i wbs_ack_o wbs_adr_i[0]
+ wbs_adr_i[10] wbs_adr_i[11] wbs_adr_i[12] wbs_adr_i[13] wbs_adr_i[14] wbs_adr_i[15]
+ wbs_adr_i[16] wbs_adr_i[17] wbs_adr_i[18] wbs_adr_i[19] wbs_adr_i[1] wbs_adr_i[20]
+ wbs_adr_i[21] wbs_adr_i[22] wbs_adr_i[23] wbs_adr_i[24] wbs_adr_i[25] wbs_adr_i[26]
+ wbs_adr_i[27] wbs_adr_i[28] wbs_adr_i[29] wbs_adr_i[2] wbs_adr_i[30] wbs_adr_i[31]
+ wbs_adr_i[3] wbs_adr_i[4] wbs_adr_i[5] wbs_adr_i[6] wbs_adr_i[7] wbs_adr_i[8] wbs_adr_i[9]
+ wbs_cyc_i wbs_dat_i[0] wbs_dat_i[10] wbs_dat_i[11] wbs_dat_i[12] wbs_dat_i[13] wbs_dat_i[14]
+ wbs_dat_i[15] wbs_dat_i[16] wbs_dat_i[17] wbs_dat_i[18] wbs_dat_i[19] wbs_dat_i[1]
+ wbs_dat_i[20] wbs_dat_i[21] wbs_dat_i[22] wbs_dat_i[23] wbs_dat_i[24] wbs_dat_i[25]
+ wbs_dat_i[26] wbs_dat_i[27] wbs_dat_i[28] wbs_dat_i[29] wbs_dat_i[2] wbs_dat_i[30]
+ wbs_dat_i[31] wbs_dat_i[3] wbs_dat_i[4] wbs_dat_i[5] wbs_dat_i[6] wbs_dat_i[7] wbs_dat_i[8]
+ wbs_dat_i[9] wbs_dat_o[0] wbs_dat_o[10] wbs_dat_o[11] wbs_dat_o[12] wbs_dat_o[13]
+ wbs_dat_o[14] wbs_dat_o[15] wbs_dat_o[16] wbs_dat_o[17] wbs_dat_o[18] wbs_dat_o[19]
+ wbs_dat_o[1] wbs_dat_o[20] wbs_dat_o[21] wbs_dat_o[22] wbs_dat_o[23] wbs_dat_o[24]
+ wbs_dat_o[25] wbs_dat_o[26] wbs_dat_o[27] wbs_dat_o[28] wbs_dat_o[29] wbs_dat_o[2]
+ wbs_dat_o[30] wbs_dat_o[31] wbs_dat_o[3] wbs_dat_o[4] wbs_dat_o[5] wbs_dat_o[6]
+ wbs_dat_o[7] wbs_dat_o[8] wbs_dat_o[9] wbs_sel_i[0] wbs_sel_i[1] wbs_sel_i[2] wbs_sel_i[3]
+ wbs_stb_i wbs_we_i
C0 pll_full_0/divider_0/prescaler_0/tspc_2/Z4 pll_full_0/divider_0/prescaler_0/tspc_2/D 0.11fF
C1 pll_full_0/divider_0/prescaler_0/tspc_1/Z1 pll_full_0/divider_0/prescaler_0/Out 0.08fF
C2 gnd pd_div_0/divider_0/prescaler_0/Out 0.46fF
C3 divbuf_5/OUT5 io_analog[5] 43.38fF
C4 ro_div_0/ro_complete_0/cbank_1/switch_3/vin ro_div_0/ro_complete_0/cbank_1/switch_4/vin 0.20fF
C5 ro_complete_0/cbank_0/switch_1/vin ro_complete_0/cbank_0/v 1.30fF
C6 ro_div_0/divider_0/tspc_1/Q ro_div_0/divider_0/tspc_2/Z4 0.15fF
C7 ro_div_0/divider_0/tspc_0/Z2 ro_div_0/divider_0/prescaler_0/Out 0.11fF
C8 ro_div_0/divider_0/prescaler_0/tspc_2/D gnd 0.05fF
C9 ro_div_0/divider_0/prescaler_0/tspc_2/Z3 ro_div_0/divider_0/clk 0.64fF
C10 ro_complete_0/a2 gpio_analog[17] 0.69fF
C11 pll_full_0/ro_complete_0/a3 pll_full_0/ro_complete_0/cbank_2/switch_2/vin 0.09fF
C12 pd_div_0/pd_0/tspc_r_1/Z3 pd_div_0/pd_0/UP 0.03fF
C13 ashish_0/a_150_n710# ashish_0/Gnd 2.30fF
C14 io_analog[7] io_analog[6] 13.31fF
C15 pd_div_0/divbuf_0/a_492_n240# pd_div_0/bufin 0.13fF
C16 pd_div_0/divider_0/prescaler_0/tspc_0/Q pd_div_0/divider_0/prescaler_0/nand_1/z1 0.01fF
C17 pd_div_0/divider_0/prescaler_0/tspc_2/Z2 pd_div_0/divider_0/clk 0.11fF
C18 pd_div_0/divider_0/prescaler_0/tspc_2/Z3 pd_div_0/divider_0/prescaler_0/Out 0.05fF
C19 gpio_analog[14] vssd1 0.25fF
C20 ro_div_0/divider_0/nor_1/Z1 ro_div_0/divider_0/and_0/B 0.18fF
C21 ro_div_0/divider_0/prescaler_0/tspc_1/Z3 ro_div_0/divider_0/prescaler_0/tspc_1/Z4 0.65fF
C22 ro_div_0/ro_complete_0/cbank_1/switch_2/vin ro_div_0/divider_0/clk 1.30fF
C23 ro_div_0/divider_0/tspc_2/Z2 ro_div_0/divider_0/tspc_2/Z4 0.36fF
C24 ro_div_0/divider_0/tspc_2/Z3 ro_div_0/divbuf_0/IN 0.05fF
C25 pll_full_0/ro_complete_0/cbank_2/switch_1/vin pll_full_0/ro_complete_0/cbank_2/v 1.30fF
C26 gnd pd_div_0/divider_0/prescaler_0/tspc_2/Z2 0.16fF
C27 pll_full_0/divider_0/nor_1/B pll_full_0/divider_0/tspc_0/a_630_n680# 0.01fF
C28 pll_full_0/divider_0/tspc_0/Q pll_full_0/divider_0/nor_1/A 0.55fF
C29 pll_full_0/divider_0/prescaler_0/tspc_0/a_630_n680# pll_full_0/divider_0/prescaler_0/tspc_0/Q 0.04fF
C30 cp_0/a_1710_0# cp_0/a_10_n50# 0.04fF
C31 pd_0/tspc_r_0/Qbar1 pd_0/tspc_r_0/z5 0.20fF
C32 pd_div_0/divider_0/tspc_0/Q pd_div_0/divider_0/tspc_1/Z2 0.14fF
C33 pd_div_0/divider_0/prescaler_0/tspc_1/Z2 pd_div_0/divider_0/prescaler_0/tspc_1/Z4 0.36fF
C34 pd_div_0/divider_0/tspc_2/Z1 pd_div_0/divider_0/tspc_2/Z4 0.00fF
C35 pd_div_0/pd_0/tspc_r_0/Qbar pd_div_0/pd_0/tspc_r_0/Qbar1 0.01fF
C36 pll_full_0/pd_0/tspc_r_1/Qbar1 pll_full_0/pd_0/tspc_r_1/Qbar 0.01fF
C37 pll_full_0/ro_complete_0/cbank_0/switch_3/vin pll_full_0/ro_complete_0/cbank_0/switch_4/vin 0.20fF
C38 ro_div_0/divider_0/prescaler_0/tspc_2/Z1 ro_div_0/divider_0/prescaler_0/tspc_2/Z4 0.00fF
C39 ro_div_0/divider_0/prescaler_0/tspc_1/a_630_n680# gnd 0.61fF
C40 ro_div_0/divider_0/prescaler_0/tspc_1/Z3 ro_div_0/divider_0/prescaler_0/tspc_1/Q 0.21fF
C41 ro_complete_0/a2 ro_complete_0/cbank_1/switch_3/vin 0.21fF
C42 ro_div_0/divider_0/and_0/B ro_div_0/divider_0/and_0/Z1 0.07fF
C43 pll_full_0/divider_0/tspc_0/Z2 pll_full_0/divider_0/tspc_0/Z3 0.16fF
C44 divbuf_4/OUT3 divbuf_4/OUT5 0.01fF
C45 divbuf_4/OUT2 divbuf_4/OUT 0.06fF
C46 pd_div_0/divider_0/mc2 pd_div_0/divider_0/prescaler_0/tspc_0/a_630_n680# 0.33fF
C47 pll_full_0/divider_0/tspc_1/Z3 pll_full_0/divider_0/tspc_1/Z4 0.65fF
C48 pll_full_0/divider_0/prescaler_0/tspc_0/Z2 pll_full_0/divider_0/clk 0.11fF
C49 pd_0/tspc_r_0/z5 pd_0/tspc_r_1/z5 0.02fF
C50 pd_0/tspc_r_1/Z3 pd_0/tspc_r_1/Z2 0.25fF
C51 io_clamp_low[0] io_clamp_high[0] 0.53fF
C52 pd_div_0/divider_0/tspc_0/Z2 pd_div_0/divider_0/prescaler_0/Out 0.11fF
C53 pd_div_0/divider_0/prescaler_0/tspc_1/Z2 pd_div_0/divider_0/prescaler_0/tspc_1/Q 0.06fF
C54 pd_div_0/divider_0/prescaler_0/tspc_2/Z2 pd_div_0/divider_0/prescaler_0/tspc_2/Z3 0.16fF
C55 ro_div_0/divbuf_0/OUT3 ro_div_0/divbuf_0/OUT2 1.37fF
C56 ro_div_0/divbuf_0/OUT ro_div_0/divbuf_0/a_492_n240# 0.00fF
C57 ro_complete_0/a4 ro_complete_0/a3 0.53fF
C58 ro_div_0/divider_0/prescaler_0/tspc_0/Z2 ro_div_0/divider_0/prescaler_0/tspc_0/Z3 0.16fF
C59 pll_full_0/pd_0/REF pll_full_0/divbuf_1/a_492_n240# 0.13fF
C60 ro_div_0/divider_0/prescaler_0/tspc_1/Z4 ro_div_0/divider_0/clk 0.12fF
C61 pll_full_0/divider_0/prescaler_0/tspc_0/Z2 pll_full_0/divider_0/prescaler_0/tspc_0/Z4 0.36fF
C62 pll_full_0/divider_0/nor_1/Z1 pll_full_0/divider_0/nor_1/B 0.06fF
C63 pll_full_0/ro_complete_0/a2 pll_full_0/divider_0/clk 0.11fF
C64 pd_div_0/divider_0/nor_0/Z1 pd_div_0/divider_0/nor_1/B 0.18fF
C65 pd_div_0/divider_0/tspc_0/Z2 pd_div_0/divider_0/tspc_0/Z1 1.07fF
C66 pll_full_0/divider_0/tspc_1/Q pll_full_0/divider_0/tspc_2/Z2 0.14fF
C67 pll_full_0/divider_0/prescaler_0/tspc_1/Q pll_full_0/divider_0/prescaler_0/nand_1/z1 0.22fF
C68 pll_full_0/divider_0/prescaler_0/tspc_0/Q pll_full_0/divider_0/prescaler_0/tspc_2/D 0.04fF
C69 pd_div_0/divider_0/prescaler_0/tspc_1/Z4 pd_div_0/divider_0/prescaler_0/Out 0.28fF
C70 pd_div_0/pd_0/tspc_r_0/Z2 pd_div_0/pd_0/tspc_r_0/Z3 0.25fF
C71 ro_div_0/ro_complete_0/a5 ro_div_0/ro_complete_0/cbank_1/switch_0/vin 0.09fF
C72 ro_div_0/ro_complete_0/cbank_0/switch_4/vin ro_div_0/ro_complete_0/cbank_0/v 1.30fF
C73 pll_full_0/pd_0/tspc_r_0/Z3 pll_full_0/pd_0/DOWN 0.03fF
C74 pd_div_0/pd_0/tspc_r_0/Z2 pd_div_0/pd_0/R 0.21fF
C75 ro_complete_0/cbank_1/switch_4/vin ro_complete_0/cbank_1/switch_5/vin 0.20fF
C76 pll_full_0/divbuf_1/OUT5 pll_full_0/divbuf_1/OUT 43.38fF
C77 pll_full_0/pd_0/DIV pll_full_0/divbuf_0/IN 5.26fF
C78 pd_0/UP divbuf_1/OUT5 0.00fF
C79 gnd ro_div_0/divbuf_0/IN 0.29fF
C80 ro_div_0/divider_0/prescaler_0/tspc_1/Q ro_div_0/divider_0/clk 0.60fF
C81 pd_div_0/pd_0/UP pd_div_0/pd_0/tspc_r_1/z5 0.03fF
C82 pll_full_0/divider_0/tspc_0/Q pll_full_0/divider_0/nor_1/B 0.22fF
C83 pll_full_0/divider_0/prescaler_0/tspc_1/Z2 pll_full_0/divider_0/prescaler_0/tspc_1/Z3 0.16fF
C84 pll_full_0/ro_complete_0/cbank_1/switch_0/vin pll_full_0/divider_0/clk 1.61fF
C85 pd_0/DIV pd_0/tspc_r_0/Qbar1 0.12fF
C86 pll_full_0/divider_0/nor_0/B pll_full_0/divbuf_0/IN 0.29fF
C87 pll_full_0/divider_0/tspc_2/Z1 pll_full_0/divider_0/tspc_2/Z3 0.06fF
C88 pd_div_0/divider_0/and_0/OUT pd_div_0/divider_0/and_0/B 0.01fF
C89 pd_div_0/divider_0/prescaler_0/tspc_1/Q pd_div_0/divider_0/prescaler_0/Out 0.91fF
C90 ro_div_0/divider_0/tspc_0/Z1 ro_div_0/divider_0/tspc_0/Z2 1.07fF
C91 ro_div_0/divider_0/prescaler_0/m1_2700_2190# ro_div_0/divider_0/prescaler_0/tspc_0/D 0.16fF
C92 ro_div_0/divider_0/prescaler_0/tspc_0/Z3 gnd 0.27fF
C93 pll_full_0/ro_complete_0/cbank_0/switch_0/vin pll_full_0/ro_complete_0/a4 0.12fF
C94 pll_full_0/ro_complete_0/a2 pll_full_0/ro_complete_0/cbank_0/switch_3/vin 0.09fF
C95 pll_full_0/divider_0/tspc_1/Z2 pll_full_0/divider_0/tspc_1/Z4 0.36fF
C96 pll_full_0/divider_0/tspc_0/Z3 pll_full_0/divider_0/prescaler_0/Out 0.45fF
C97 pll_full_0/divider_0/prescaler_0/tspc_2/a_630_n680# pll_full_0/divider_0/prescaler_0/tspc_2/Z4 0.12fF
C98 pll_full_0/divider_0/prescaler_0/tspc_2/Z1 pll_full_0/divider_0/prescaler_0/tspc_2/Z2 1.07fF
C99 pd_div_0/divider_0/tspc_0/Q pd_div_0/divider_0/tspc_1/Z4 0.15fF
C100 pd_div_0/divider_0/prescaler_0/tspc_2/a_740_n680# pd_div_0/divider_0/prescaler_0/tspc_2/a_630_n680# 0.19fF
C101 pd_0/R pd_0/UP 0.46fF
C102 pll_full_0/divider_0/and_0/out1 pll_full_0/divider_0/and_0/Z1 0.36fF
C103 ro_div_0/ro_complete_0/a2 ro_div_0/ro_complete_0/cbank_1/switch_3/vin 0.09fF
C104 ro_div_0/divider_0/prescaler_0/tspc_0/a_740_n680# ro_div_0/divider_0/prescaler_0/tspc_0/a_630_n680# 0.19fF
C105 pd_div_0/div pd_div_0/divbuf_0/a_492_n240# 0.00fF
C106 ro_div_0/divider_0/prescaler_0/tspc_2/Z3 ro_div_0/divider_0/prescaler_0/tspc_1/Q 0.13fF
C107 ro_div_0/divider_0/prescaler_0/tspc_2/a_630_n680# gnd 0.63fF
C108 pll_full_0/ro_complete_0/cbank_1/switch_1/vin pll_full_0/ro_complete_0/cbank_1/switch_2/vin 0.20fF
C109 pll_full_0/divider_0/tspc_0/Z3 pll_full_0/divider_0/tspc_0/Z1 0.06fF
C110 pll_full_0/divider_0/prescaler_0/tspc_0/a_740_n680# pll_full_0/divider_0/prescaler_0/tspc_0/Z3 0.33fF
C111 pd_div_0/divbuf_0/a_492_n240# pd_div_0/divbuf_0/OUT5 0.01fF
C112 pd_div_0/pd_0/DOWN pd_div_0/pd_0/tspc_r_1/Qbar 0.02fF
C113 pd_div_0/pd_0/tspc_r_0/Z4 pd_div_0/pd_0/tspc_r_0/z5 0.04fF
C114 ro_complete_0/a2 divbuf_5/IN 0.05fF
C115 pll_full_0/divider_0/nor_1/B pll_full_0/divider_0/tspc_2/Z4 0.02fF
C116 pll_full_0/divider_0/prescaler_0/tspc_1/Z3 pll_full_0/divider_0/prescaler_0/Out 0.11fF
C117 pll_full_0/divider_0/prescaler_0/tspc_1/Z2 pll_full_0/divider_0/clk 0.11fF
C118 pd_div_0/divider_0/prescaler_0/tspc_2/Z2 pd_div_0/divider_0/prescaler_0/tspc_1/Q 0.06fF
C119 pd_0/UP pd_0/and_pd_0/Out1 0.33fF
C120 ro_div_0/divbuf_0/OUT5 ro_div_0/divbuf_0/a_492_n240# 0.01fF
C121 ro_complete_0/cbank_1/switch_4/vin ro_complete_0/cbank_1/switch_3/vin 0.20fF
C122 ro_div_0/divider_0/nor_1/Z1 gnd 0.01fF
C123 gnd ro_div_0/divider_0/prescaler_0/nand_1/z1 0.16fF
C124 ro_div_0/divider_0/prescaler_0/tspc_2/Z4 ro_div_0/divider_0/clk 0.12fF
C125 pll_full_0/ro_complete_0/cbank_0/switch_5/vin pll_full_0/ro_complete_0/a0 0.09fF
C126 pll_full_0/divider_0/prescaler_0/m1_2700_2190# pll_full_0/divider_0/prescaler_0/tspc_1/a_630_n680# 0.19fF
C127 pd_div_0/pd_0/tspc_r_0/z5 pd_div_0/pd_0/tspc_r_1/z5 0.02fF
C128 pd_div_0/pd_0/tspc_r_1/Z3 pd_div_0/pd_0/tspc_r_1/Z1 0.09fF
C129 pd_div_0/pd_0/REF pd_div_0/pd_0/tspc_r_1/Z2 0.19fF
C130 io_analog[6] ashish_0/Gnd 0.33fF
C131 pd_div_0/divider_0/prescaler_0/tspc_2/D pd_div_0/divider_0/prescaler_0/nand_1/z1 0.21fF
C132 ro_div_0/ro_complete_0/a3 ro_div_0/ro_complete_0/cbank_2/switch_2/vin 0.09fF
C133 ro_div_0/divider_0/tspc_0/Z4 ro_div_0/divider_0/nor_1/A 0.21fF
C134 ro_div_0/divider_0/prescaler_0/tspc_0/Z1 ro_div_0/divider_0/prescaler_0/tspc_0/D 0.15fF
C135 gnd ro_div_0/divider_0/and_0/Z1 0.32fF
C136 pll_full_0/divider_0/tspc_0/Q pll_full_0/divider_0/tspc_1/Z3 0.45fF
C137 pll_full_0/ro_complete_0/cbank_1/switch_5/vin pll_full_0/divider_0/clk 1.46fF
C138 gnd pd_div_0/divider_0/nor_1/A 1.02fF
C139 pd_div_0/pd_0/tspc_r_1/Qbar pd_div_0/pd_0/and_pd_0/Z1 0.02fF
C140 divbuf_5/IN io_analog[5] 0.34fF
C141 pd_div_0/divider_0/tspc_0/Q pd_div_0/divider_0/tspc_0/a_630_n680# 0.04fF
C142 pll_full_0/divider_0/prescaler_0/Out pll_full_0/divider_0/clk 0.51fF
C143 pd_div_0/divider_0/tspc_2/Z3 pd_div_0/divider_0/tspc_2/Z4 0.65fF
C144 pll_full_0/pd_0/tspc_r_1/Z3 pll_full_0/pd_0/tspc_r_1/Z4 0.20fF
C145 pll_full_0/pd_0/REF pll_full_0/pd_0/tspc_r_1/z5 0.04fF
C146 pll_full_0/pd_0/tspc_r_1/Z1 pll_full_0/pd_0/tspc_r_1/Z2 0.71fF
C147 pd_div_0/pd_0/tspc_r_0/Z1 pd_div_0/pd_0/tspc_r_0/Z3 0.09fF
C148 ro_div_0/ro_complete_0/cbank_2/switch_1/vin ro_div_0/ro_complete_0/cbank_2/v 1.30fF
C149 ro_div_0/divider_0/tspc_0/Z4 gnd 0.44fF
C150 ro_div_0/divider_0/prescaler_0/tspc_2/Z3 ro_div_0/divider_0/prescaler_0/tspc_2/Z4 0.65fF
C151 pll_full_0/divbuf_0/OUT5 pll_full_0/divbuf_0/OUT2 0.02fF
C152 pll_full_0/ro_complete_0/cbank_0/switch_1/vin pll_full_0/ro_complete_0/a3 0.13fF
C153 divbuf_4/OUT4 divbuf_4/OUT 1.11fF
C154 pd_0/tspc_r_1/Qbar1 pd_0/tspc_r_1/Qbar 0.01fF
C155 pd_div_0/divider_0/prescaler_0/tspc_2/Z2 pd_div_0/divider_0/prescaler_0/tspc_2/Z4 0.36fF
C156 pd_div_0/divider_0/nor_1/Z1 pd_div_0/divider_0/and_0/A 0.80fF
C157 ro_div_0/ro_complete_0/cbank_0/switch_3/vin ro_div_0/ro_complete_0/cbank_0/switch_4/vin 0.20fF
C158 ro_div_0/divider_0/nor_0/Z1 ro_div_0/divider_0/nor_1/B 0.18fF
C159 ro_div_0/divider_0/prescaler_0/tspc_0/Z2 ro_div_0/divider_0/prescaler_0/tspc_0/Z4 0.36fF
C160 gnd pd_div_0/divider_0/tspc_0/Z3 0.27fF
C161 pd_div_0/pd_0/R pd_div_0/pd_0/tspc_r_1/Qbar 0.03fF
C162 pd_div_0/pd_0/DOWN pd_div_0/pd_0/and_pd_0/Out1 0.12fF
C163 pll_full_0/divider_0/prescaler_0/tspc_0/Q pll_full_0/divider_0/prescaler_0/nand_1/z1 0.01fF
C164 pll_full_0/divider_0/prescaler_0/tspc_2/Z2 pll_full_0/divider_0/clk 0.11fF
C165 pll_full_0/divider_0/prescaler_0/tspc_2/Z3 pll_full_0/divider_0/prescaler_0/Out 0.05fF
C166 pd_div_0/divider_0/prescaler_0/tspc_0/a_630_n680# pd_div_0/divider_0/prescaler_0/tspc_0/Z2 0.01fF
C167 pll_full_0/pd_0/tspc_r_0/Z3 pll_full_0/pd_0/tspc_r_0/Z1 0.09fF
C168 pll_full_0/pd_0/DIV pll_full_0/pd_0/tspc_r_0/Z2 0.19fF
C169 pd_div_0/pd_0/tspc_r_0/Z2 pd_div_0/pd_0/tspc_r_0/Z4 0.14fF
C170 ro_complete_0/cbank_1/switch_4/vin divbuf_5/IN 1.30fF
C171 ro_div_0/divider_0/prescaler_0/m1_2700_2190# ro_div_0/divider_0/prescaler_0/tspc_1/Z3 0.33fF
C172 ro_div_0/ro_complete_0/cbank_1/switch_1/vin ro_div_0/divider_0/clk 1.30fF
C173 gpio_analog[14] ro_complete_0/cbank_2/v 0.08fF
C174 ro_complete_0/cbank_0/switch_1/vin ro_complete_0/cbank_0/switch_0/vin 0.19fF
C175 ro_div_0/divider_0/and_0/OUT ro_div_0/divider_0/and_0/Z1 0.04fF
C176 ro_div_0/divider_0/tspc_2/a_630_n680# ro_div_0/divider_0/nor_0/B 0.35fF
C177 ro_div_0/divider_0/prescaler_0/tspc_0/Q ro_div_0/divider_0/clk 0.05fF
C178 pll_full_0/ro_complete_0/a0 pll_full_0/ro_complete_0/cbank_2/switch_4/vin 0.13fF
C179 gnd pd_div_0/divider_0/nor_1/B 1.10fF
C180 pd_div_0/pd_0/tspc_r_1/Z2 pd_div_0/pd_0/tspc_r_1/Z4 0.14fF
C181 pll_full_0/divider_0/tspc_0/Q pll_full_0/divider_0/tspc_1/Z2 0.14fF
C182 pll_full_0/divider_0/prescaler_0/tspc_1/Z2 pll_full_0/divider_0/prescaler_0/tspc_1/Z4 0.36fF
C183 pd_0/tspc_r_0/Z3 pd_0/DOWN 0.03fF
C184 pll_full_0/divider_0/tspc_2/Z1 pll_full_0/divider_0/tspc_2/Z4 0.00fF
C185 pd_div_0/divider_0/tspc_0/Z2 pd_div_0/divider_0/nor_1/A 0.23fF
C186 pll_full_0/pd_0/R pll_full_0/pd_0/tspc_r_1/Qbar 0.03fF
C187 io_analog[5] m4_115800_678290# 1.01fF
C188 pll_full_0/ro_complete_0/a2 pll_full_0/ro_complete_0/cbank_2/switch_3/vin 0.09fF
C189 pd_div_0/divbuf_0/OUT2 pd_div_0/divbuf_0/OUT3 1.37fF
C190 ro_div_0/divider_0/prescaler_0/m1_2700_2190# ro_div_0/divider_0/prescaler_0/nand_0/z1 0.07fF
C191 ro_div_0/divider_0/prescaler_0/tspc_0/Z4 gnd 0.44fF
C192 ro_complete_0/cbank_0/switch_2/vin ro_complete_0/a2 0.14fF
C193 pd_div_0/divbuf_0/OUT3 pd_div_0/divbuf_0/OUT4 5.16fF
C194 pd_div_0/pd_0/and_pd_0/Out1 pd_div_0/pd_0/and_pd_0/Z1 0.18fF
C195 pll_full_0/divider_0/nor_1/Z1 pll_full_0/divider_0/and_0/B 0.18fF
C196 pll_full_0/divider_0/prescaler_0/tspc_1/Z2 pll_full_0/divider_0/prescaler_0/tspc_1/Q 0.06fF
C197 pll_full_0/divider_0/prescaler_0/tspc_2/Z2 pll_full_0/divider_0/prescaler_0/tspc_2/Z3 0.16fF
C198 pll_full_0/divider_0/prescaler_0/tspc_0/a_740_n680# pll_full_0/divider_0/clk 0.01fF
C199 m4_28900_141410# vssd1 1.12fF
C200 pd_div_0/divider_0/nor_0/Z1 pd_div_0/divider_0/and_0/B 0.78fF
C201 ro_div_0/divbuf_0/OUT ro_div_0/divbuf_0/OUT2 0.06fF
C202 ro_div_0/ro_complete_0/cbank_0/switch_0/vin ro_div_0/ro_complete_0/a4 0.12fF
C203 ro_div_0/ro_complete_0/a2 ro_div_0/ro_complete_0/cbank_0/switch_3/vin 0.09fF
C204 pll_full_0/pd_0/tspc_r_1/Qbar pll_full_0/pd_0/and_pd_0/Out1 0.05fF
C205 pll_full_0/divbuf_0/OUT2 pll_full_0/divbuf_0/a_492_n240# 0.42fF
C206 ro_div_0/divider_0/prescaler_0/tspc_2/Z4 ro_div_0/divider_0/prescaler_0/tspc_1/Q 0.21fF
C207 ro_div_0/divider_0/prescaler_0/tspc_2/Z1 ro_div_0/divider_0/prescaler_0/tspc_2/D 0.03fF
C208 ro_div_0/divider_0/prescaler_0/m1_2700_2190# ro_div_0/divider_0/clk 0.01fF
C209 pll_full_0/divider_0/prescaler_0/tspc_0/a_740_n680# pll_full_0/divider_0/prescaler_0/tspc_0/Z4 0.08fF
C210 pd_div_0/divider_0/tspc_0/Z2 pd_div_0/divider_0/tspc_0/Z3 0.16fF
C211 pll_full_0/divider_0/prescaler_0/tspc_1/Z4 pll_full_0/divider_0/prescaler_0/Out 0.28fF
C212 pd_div_0/divider_0/nor_1/A pd_div_0/divider_0/prescaler_0/tspc_1/Q 0.03fF
C213 pd_div_0/divider_0/prescaler_0/m1_2700_2190# pd_div_0/divider_0/prescaler_0/Out 0.11fF
C214 ro_complete_0/a4 ro_complete_0/cbank_2/switch_0/vin 0.12fF
C215 ro_div_0/ro_complete_0/cbank_1/switch_1/vin ro_div_0/ro_complete_0/cbank_1/switch_2/vin 0.20fF
C216 ro_div_0/divider_0/tspc_0/Z3 ro_div_0/divider_0/tspc_0/Z4 0.65fF
C217 pll_full_0/ro_complete_0/a2 pll_full_0/ro_complete_0/cbank_2/v 0.05fF
C218 pd_div_0/div pd_div_0/bufin 0.26fF
C219 pd_div_0/pd_0/R pd_div_0/pd_0/and_pd_0/Out1 0.33fF
C220 pll_full_0/divider_0/tspc_0/Z3 pll_full_0/divider_0/nor_1/A 0.38fF
C221 pd_div_0/divbuf_0/OUT5 pd_div_0/bufin 0.00fF
C222 pll_full_0/divider_0/and_0/OUT pll_full_0/divider_0/and_0/B 0.01fF
C223 pll_full_0/divider_0/prescaler_0/tspc_1/Q pll_full_0/divider_0/prescaler_0/Out 0.91fF
C224 ro_div_0/ro_complete_0/cbank_0/switch_5/vin ro_div_0/ro_complete_0/a0 0.09fF
C225 pll_full_0/ro_complete_0/cbank_0/switch_0/vin pll_full_0/ro_complete_0/cbank_0/switch_1/vin 0.19fF
C226 ro_div_0/divider_0/prescaler_0/tspc_0/Z3 ro_div_0/divider_0/prescaler_0/tspc_0/D 0.05fF
C227 ro_div_0/ro_complete_0/cbank_1/switch_4/vin ro_div_0/divider_0/clk 1.30fF
C228 ro_complete_0/a3 ro_complete_0/a2 0.49fF
C229 divbuf_4/a_492_n240# divbuf_4/OUT2 0.42fF
C230 gnd pd_div_0/divider_0/tspc_1/Z3 0.27fF
C231 pll_full_0/divider_0/tspc_0/Q pll_full_0/divider_0/tspc_1/Z4 0.15fF
C232 pll_full_0/divider_0/prescaler_0/tspc_2/a_740_n680# pll_full_0/divider_0/prescaler_0/tspc_2/a_630_n680# 0.19fF
C233 pd_div_0/divider_0/prescaler_0/tspc_1/Z2 pd_div_0/divider_0/prescaler_0/tspc_2/a_740_n680# 0.01fF
C234 pll_full_0/cp_0/upbar pll_full_0/cp_0/down 0.02fF
C235 pll_full_0/pd_0/R pll_full_0/pd_0/and_pd_0/Z1 0.02fF
C236 pll_full_0/pd_0/tspc_r_1/Qbar1 pll_full_0/pd_0/tspc_r_1/z5 0.20fF
C237 pll_full_0/divbuf_1/OUT5 pll_full_0/divbuf_1/OUT2 0.02fF
C238 ro_complete_0/cbank_0/switch_3/vin ro_complete_0/a2 0.09fF
C239 ro_div_0/divider_0/tspc_1/a_630_n680# ro_div_0/divider_0/nor_0/B 0.00fF
C240 ro_div_0/divider_0/prescaler_0/tspc_1/Z2 gnd 0.17fF
C241 pll_full_0/divider_0/prescaler_0/tspc_2/Z2 pll_full_0/divider_0/prescaler_0/tspc_1/Q 0.06fF
C242 pd_0/tspc_r_1/Z3 pd_0/tspc_r_1/Z4 0.20fF
C243 pd_0/tspc_r_1/Z1 pd_0/tspc_r_1/Z2 0.71fF
C244 ro_div_0/divbuf_0/OUT5 ro_div_0/divbuf_0/OUT2 0.02fF
C245 ro_div_0/ro_complete_0/cbank_0/switch_1/vin ro_div_0/ro_complete_0/a3 0.13fF
C246 pd_0/DIV divbuf_2/OUT5 43.38fF
C247 pll_full_0/pd_0/and_pd_0/Out1 pll_full_0/pd_0/and_pd_0/Z1 0.18fF
C248 pd_div_0/pd_0/tspc_r_0/Qbar1 pd_div_0/pd_0/DOWN 0.11fF
C249 ro_div_0/divider_0/tspc_1/Q ro_div_0/divider_0/tspc_2/a_630_n680# 0.01fF
C250 ro_div_0/divider_0/nor_1/A ro_div_0/divider_0/prescaler_0/Out 0.15fF
C251 ro_div_0/divider_0/prescaler_0/tspc_1/Q ro_div_0/divider_0/prescaler_0/tspc_0/Q 0.19fF
C252 ro_div_0/divider_0/prescaler_0/tspc_2/a_740_n680# ro_div_0/divider_0/clk 0.14fF
C253 divbuf_3/OUT5 divbuf_3/OUT3 0.01fF
C254 divbuf_1/a_492_n240# divbuf_1/OUT2 0.42fF
C255 pll_full_0/divider_0/prescaler_0/tspc_2/D pll_full_0/divider_0/prescaler_0/nand_1/z1 0.21fF
C256 pd_div_0/divider_0/prescaler_0/tspc_2/a_740_n680# pd_div_0/divider_0/prescaler_0/Out 0.21fF
C257 pll_full_0/pd_0/DIV pll_full_0/pd_0/R 0.51fF
C258 ro_div_0/divider_0/prescaler_0/m1_2700_2190# ro_div_0/divider_0/prescaler_0/tspc_1/Z4 0.08fF
C259 ro_div_0/divider_0/prescaler_0/tspc_1/a_630_n680# ro_div_0/divider_0/prescaler_0/tspc_1/Z3 0.05fF
C260 gpio_analog[14] gpio_analog[16] 0.57fF
C261 pll_full_0/divbuf_1/OUT5 pll_full_0/divbuf_1/a_492_n240# 0.01fF
C262 ro_div_0/divider_0/tspc_2/a_630_n680# ro_div_0/divider_0/tspc_2/Z2 0.01fF
C263 ro_div_0/divider_0/prescaler_0/tspc_2/D ro_div_0/divider_0/clk 0.29fF
C264 gnd ro_div_0/divider_0/prescaler_0/Out 0.46fF
C265 pll_full_0/divider_0/tspc_0/Q pll_full_0/divider_0/tspc_0/a_630_n680# 0.04fF
C266 pll_full_0/ro_complete_0/a0 pll_full_0/divider_0/clk 0.01fF
C267 gnd pd_div_0/divider_0/tspc_1/Z2 0.16fF
C268 pd_div_0/divider_0/tspc_1/a_630_n680# pd_div_0/divider_0/nor_1/B 0.35fF
C269 pd_div_0/divider_0/prescaler_0/tspc_1/a_630_n680# pd_div_0/divider_0/prescaler_0/tspc_1/Z2 0.01fF
C270 pd_0/tspc_r_0/Z3 pd_0/tspc_r_0/Z1 0.09fF
C271 pd_0/DIV pd_0/tspc_r_0/Z2 0.19fF
C272 pll_full_0/divider_0/tspc_2/Z3 pll_full_0/divider_0/tspc_2/Z4 0.65fF
C273 divbuf_0/OUT5 divbuf_0/OUT3 0.01fF
C274 ro_div_0/ro_complete_0/a0 ro_div_0/ro_complete_0/cbank_2/switch_4/vin 0.13fF
C275 pll_full_0/pd_0/REF pll_full_0/pd_0/tspc_r_1/Qbar1 0.12fF
C276 ro_div_0/divider_0/nor_1/B ro_div_0/divider_0/tspc_1/Z3 0.38fF
C277 ro_div_0/divider_0/prescaler_0/tspc_1/Z2 ro_div_0/divider_0/and_0/OUT 0.06fF
C278 ro_div_0/divider_0/prescaler_0/tspc_2/a_740_n680# ro_div_0/divider_0/prescaler_0/tspc_2/Z3 0.33fF
C279 ro_div_0/divider_0/prescaler_0/m1_2700_2190# ro_div_0/divider_0/prescaler_0/tspc_1/Q 0.38fF
C280 ro_div_0/divider_0/nor_0/Z1 ro_div_0/divider_0/and_0/B 0.78fF
C281 pll_full_0/ro_complete_0/a2 pll_full_0/ro_complete_0/cbank_0/switch_2/vin 0.14fF
C282 pll_full_0/ro_complete_0/cbank_0/switch_1/vin pll_full_0/ro_complete_0/a4 0.09fF
C283 pll_full_0/ro_complete_0/cbank_0/switch_0/vin pll_full_0/ro_complete_0/a5 0.09fF
C284 pll_full_0/divider_0/nor_0/Z1 pll_full_0/divider_0/nor_1/B 0.18fF
C285 ro_complete_0/cbank_0/v divbuf_5/IN 1.27fF
C286 ro_div_0/divider_0/and_0/out1 ro_div_0/divider_0/and_0/A 0.01fF
C287 pll_full_0/divider_0/prescaler_0/tspc_2/Z2 pll_full_0/divider_0/prescaler_0/tspc_2/Z4 0.36fF