* SPICE3 file created from user_analog_project_wrapper.ext - technology: sky130A

.subckt user_analog_project_wrapper gpio_analog[0] gpio_analog[10] gpio_analog[11]
+ gpio_analog[12] gpio_analog[13] gpio_analog[14] gpio_analog[15] gpio_analog[16]
+ gpio_analog[17] gpio_analog[1] gpio_analog[2] gpio_analog[3] gpio_analog[4] gpio_analog[5]
+ gpio_analog[6] gpio_analog[7] gpio_analog[8] gpio_analog[9] gpio_noesd[0] gpio_noesd[10]
+ gpio_noesd[11] gpio_noesd[12] gpio_noesd[13] gpio_noesd[14] gpio_noesd[15] gpio_noesd[16]
+ gpio_noesd[17] gpio_noesd[1] gpio_noesd[2] gpio_noesd[3] gpio_noesd[4] gpio_noesd[5]
+ gpio_noesd[6] gpio_noesd[7] gpio_noesd[8] gpio_noesd[9] io_analog[0] io_analog[10]
+ io_analog[1] io_analog[2] io_analog[3] io_analog[4] io_analog[5] io_analog[6] io_analog[7]
+ io_analog[8] io_analog[9] io_clamp_high[0] io_clamp_high[1] io_clamp_high[2] io_clamp_low[0]
+ io_clamp_low[1] io_clamp_low[2] io_in[0] io_in[10] io_in[11] io_in[12] io_in[13]
+ io_in[14] io_in[15] io_in[16] io_in[17] io_in[18] io_in[19] io_in[1] io_in[20] io_in[21]
+ io_in[22] io_in[23] io_in[24] io_in[25] io_in[26] io_in[2] io_in[3] io_in[4] io_in[5]
+ io_in[6] io_in[7] io_in[8] io_in[9] io_in_3v3[0] io_in_3v3[10] io_in_3v3[11] io_in_3v3[12]
+ io_in_3v3[13] io_in_3v3[14] io_in_3v3[15] io_in_3v3[16] io_in_3v3[17] io_in_3v3[18]
+ io_in_3v3[19] io_in_3v3[1] io_in_3v3[20] io_in_3v3[21] io_in_3v3[22] io_in_3v3[23]
+ io_in_3v3[24] io_in_3v3[25] io_in_3v3[26] io_in_3v3[2] io_in_3v3[3] io_in_3v3[4]
+ io_in_3v3[5] io_in_3v3[6] io_in_3v3[7] io_in_3v3[8] io_in_3v3[9] io_oeb[0] io_oeb[10]
+ io_oeb[11] io_oeb[12] io_oeb[13] io_oeb[14] io_oeb[15] io_oeb[16] io_oeb[17] io_oeb[18]
+ io_oeb[19] io_oeb[1] io_oeb[20] io_oeb[21] io_oeb[22] io_oeb[23] io_oeb[24] io_oeb[25]
+ io_oeb[26] io_oeb[2] io_oeb[3] io_oeb[4] io_oeb[5] io_oeb[6] io_oeb[7] io_oeb[8]
+ io_oeb[9] io_out[0] io_out[10] io_out[11] io_out[12] io_out[13] io_out[14] io_out[15]
+ io_out[16] io_out[17] io_out[18] io_out[19] io_out[1] io_out[20] io_out[21] io_out[22]
+ io_out[23] io_out[24] io_out[25] io_out[26] io_out[2] io_out[3] io_out[4] io_out[5]
+ io_out[6] io_out[7] io_out[8] io_out[9] la_data_in[0] la_data_in[100] la_data_in[101]
+ la_data_in[102] la_data_in[103] la_data_in[104] la_data_in[105] la_data_in[106]
+ la_data_in[107] la_data_in[108] la_data_in[109] la_data_in[10] la_data_in[110] la_data_in[111]
+ la_data_in[112] la_data_in[113] la_data_in[114] la_data_in[115] la_data_in[116]
+ la_data_in[117] la_data_in[118] la_data_in[119] la_data_in[11] la_data_in[120] la_data_in[121]
+ la_data_in[122] la_data_in[123] la_data_in[124] la_data_in[125] la_data_in[126]
+ la_data_in[127] la_data_in[12] la_data_in[13] la_data_in[14] la_data_in[15] la_data_in[16]
+ la_data_in[17] la_data_in[18] la_data_in[19] la_data_in[1] la_data_in[20] la_data_in[21]
+ la_data_in[22] la_data_in[23] la_data_in[24] la_data_in[25] la_data_in[26] la_data_in[27]
+ la_data_in[28] la_data_in[29] la_data_in[2] la_data_in[30] la_data_in[31] la_data_in[32]
+ la_data_in[33] la_data_in[34] la_data_in[35] la_data_in[36] la_data_in[37] la_data_in[38]
+ la_data_in[39] la_data_in[3] la_data_in[40] la_data_in[41] la_data_in[42] la_data_in[43]
+ la_data_in[44] la_data_in[45] la_data_in[46] la_data_in[47] la_data_in[48] la_data_in[49]
+ la_data_in[4] la_data_in[50] la_data_in[51] la_data_in[52] la_data_in[53] la_data_in[54]
+ la_data_in[55] la_data_in[56] la_data_in[57] la_data_in[58] la_data_in[59] la_data_in[5]
+ la_data_in[60] la_data_in[61] la_data_in[62] la_data_in[63] la_data_in[64] la_data_in[65]
+ la_data_in[66] la_data_in[67] la_data_in[68] la_data_in[69] la_data_in[6] la_data_in[70]
+ la_data_in[71] la_data_in[72] la_data_in[73] la_data_in[74] la_data_in[75] la_data_in[76]
+ la_data_in[77] la_data_in[78] la_data_in[79] la_data_in[7] la_data_in[80] la_data_in[81]
+ la_data_in[82] la_data_in[83] la_data_in[84] la_data_in[85] la_data_in[86] la_data_in[87]
+ la_data_in[88] la_data_in[89] la_data_in[8] la_data_in[90] la_data_in[91] la_data_in[92]
+ la_data_in[93] la_data_in[94] la_data_in[95] la_data_in[96] la_data_in[97] la_data_in[98]
+ la_data_in[99] la_data_in[9] la_data_out[0] la_data_out[100] la_data_out[101] la_data_out[102]
+ la_data_out[103] la_data_out[104] la_data_out[105] la_data_out[106] la_data_out[107]
+ la_data_out[108] la_data_out[109] la_data_out[10] la_data_out[110] la_data_out[111]
+ la_data_out[112] la_data_out[113] la_data_out[114] la_data_out[115] la_data_out[116]
+ la_data_out[117] la_data_out[118] la_data_out[119] la_data_out[11] la_data_out[120]
+ la_data_out[121] la_data_out[122] la_data_out[123] la_data_out[124] la_data_out[125]
+ la_data_out[126] la_data_out[127] la_data_out[12] la_data_out[13] la_data_out[14]
+ la_data_out[15] la_data_out[16] la_data_out[17] la_data_out[18] la_data_out[19]
+ la_data_out[1] la_data_out[20] la_data_out[21] la_data_out[22] la_data_out[23] la_data_out[24]
+ la_data_out[25] la_data_out[26] la_data_out[27] la_data_out[28] la_data_out[29]
+ la_data_out[2] la_data_out[30] la_data_out[31] la_data_out[32] la_data_out[33] la_data_out[34]
+ la_data_out[35] la_data_out[36] la_data_out[37] la_data_out[38] la_data_out[39]
+ la_data_out[3] la_data_out[40] la_data_out[41] la_data_out[42] la_data_out[43] la_data_out[44]
+ la_data_out[45] la_data_out[46] la_data_out[47] la_data_out[48] la_data_out[49]
+ la_data_out[4] la_data_out[50] la_data_out[51] la_data_out[52] la_data_out[53] la_data_out[54]
+ la_data_out[55] la_data_out[56] la_data_out[57] la_data_out[58] la_data_out[59]
+ la_data_out[5] la_data_out[60] la_data_out[61] la_data_out[62] la_data_out[63] la_data_out[64]
+ la_data_out[65] la_data_out[66] la_data_out[67] la_data_out[68] la_data_out[69]
+ la_data_out[6] la_data_out[70] la_data_out[71] la_data_out[72] la_data_out[73] la_data_out[74]
+ la_data_out[75] la_data_out[76] la_data_out[77] la_data_out[78] la_data_out[79]
+ la_data_out[7] la_data_out[80] la_data_out[81] la_data_out[82] la_data_out[83] la_data_out[84]
+ la_data_out[85] la_data_out[86] la_data_out[87] la_data_out[88] la_data_out[89]
+ la_data_out[8] la_data_out[90] la_data_out[91] la_data_out[92] la_data_out[93] la_data_out[94]
+ la_data_out[95] la_data_out[96] la_data_out[97] la_data_out[98] la_data_out[99]
+ la_data_out[9] la_oenb[0] la_oenb[100] la_oenb[101] la_oenb[102] la_oenb[103] la_oenb[104]
+ la_oenb[105] la_oenb[106] la_oenb[107] la_oenb[108] la_oenb[109] la_oenb[10] la_oenb[110]
+ la_oenb[111] la_oenb[112] la_oenb[113] la_oenb[114] la_oenb[115] la_oenb[116] la_oenb[117]
+ la_oenb[118] la_oenb[119] la_oenb[11] la_oenb[120] la_oenb[121] la_oenb[122] la_oenb[123]
+ la_oenb[124] la_oenb[125] la_oenb[126] la_oenb[127] la_oenb[12] la_oenb[13] la_oenb[14]
+ la_oenb[15] la_oenb[16] la_oenb[17] la_oenb[18] la_oenb[19] la_oenb[1] la_oenb[20]
+ la_oenb[21] la_oenb[22] la_oenb[23] la_oenb[24] la_oenb[25] la_oenb[26] la_oenb[27]
+ la_oenb[28] la_oenb[29] la_oenb[2] la_oenb[30] la_oenb[31] la_oenb[32] la_oenb[33]
+ la_oenb[34] la_oenb[35] la_oenb[36] la_oenb[37] la_oenb[38] la_oenb[39] la_oenb[3]
+ la_oenb[40] la_oenb[41] la_oenb[42] la_oenb[43] la_oenb[44] la_oenb[45] la_oenb[46]
+ la_oenb[47] la_oenb[48] la_oenb[49] la_oenb[4] la_oenb[50] la_oenb[51] la_oenb[52]
+ la_oenb[53] la_oenb[54] la_oenb[55] la_oenb[56] la_oenb[57] la_oenb[58] la_oenb[59]
+ la_oenb[5] la_oenb[60] la_oenb[61] la_oenb[62] la_oenb[63] la_oenb[64] la_oenb[65]
+ la_oenb[66] la_oenb[67] la_oenb[68] la_oenb[69] la_oenb[6] la_oenb[70] la_oenb[71]
+ la_oenb[72] la_oenb[73] la_oenb[74] la_oenb[75] la_oenb[76] la_oenb[77] la_oenb[78]
+ la_oenb[79] la_oenb[7] la_oenb[80] la_oenb[81] la_oenb[82] la_oenb[83] la_oenb[84]
+ la_oenb[85] la_oenb[86] la_oenb[87] la_oenb[88] la_oenb[89] la_oenb[8] la_oenb[90]
+ la_oenb[91] la_oenb[92] la_oenb[93] la_oenb[94] la_oenb[95] la_oenb[96] la_oenb[97]
+ la_oenb[98] la_oenb[99] la_oenb[9] user_clock2 user_irq[0] user_irq[1] user_irq[2]
+ vccd1 vccd2 vdda1 vdda2 vssa1 vssa2 vssd1 vssd2 wb_clk_i wb_rst_i wbs_ack_o wbs_adr_i[0]
+ wbs_adr_i[10] wbs_adr_i[11] wbs_adr_i[12] wbs_adr_i[13] wbs_adr_i[14] wbs_adr_i[15]
+ wbs_adr_i[16] wbs_adr_i[17] wbs_adr_i[18] wbs_adr_i[19] wbs_adr_i[1] wbs_adr_i[20]
+ wbs_adr_i[21] wbs_adr_i[22] wbs_adr_i[23] wbs_adr_i[24] wbs_adr_i[25] wbs_adr_i[26]
+ wbs_adr_i[27] wbs_adr_i[28] wbs_adr_i[29] wbs_adr_i[2] wbs_adr_i[30] wbs_adr_i[31]
+ wbs_adr_i[3] wbs_adr_i[4] wbs_adr_i[5] wbs_adr_i[6] wbs_adr_i[7] wbs_adr_i[8] wbs_adr_i[9]
+ wbs_cyc_i wbs_dat_i[0] wbs_dat_i[10] wbs_dat_i[11] wbs_dat_i[12] wbs_dat_i[13] wbs_dat_i[14]
+ wbs_dat_i[15] wbs_dat_i[16] wbs_dat_i[17] wbs_dat_i[18] wbs_dat_i[19] wbs_dat_i[1]
+ wbs_dat_i[20] wbs_dat_i[21] wbs_dat_i[22] wbs_dat_i[23] wbs_dat_i[24] wbs_dat_i[25]
+ wbs_dat_i[26] wbs_dat_i[27] wbs_dat_i[28] wbs_dat_i[29] wbs_dat_i[2] wbs_dat_i[30]
+ wbs_dat_i[31] wbs_dat_i[3] wbs_dat_i[4] wbs_dat_i[5] wbs_dat_i[6] wbs_dat_i[7] wbs_dat_i[8]
+ wbs_dat_i[9] wbs_dat_o[0] wbs_dat_o[10] wbs_dat_o[11] wbs_dat_o[12] wbs_dat_o[13]
+ wbs_dat_o[14] wbs_dat_o[15] wbs_dat_o[16] wbs_dat_o[17] wbs_dat_o[18] wbs_dat_o[19]
+ wbs_dat_o[1] wbs_dat_o[20] wbs_dat_o[21] wbs_dat_o[22] wbs_dat_o[23] wbs_dat_o[24]
+ wbs_dat_o[25] wbs_dat_o[26] wbs_dat_o[27] wbs_dat_o[28] wbs_dat_o[29] wbs_dat_o[2]
+ wbs_dat_o[30] wbs_dat_o[31] wbs_dat_o[3] wbs_dat_o[4] wbs_dat_o[5] wbs_dat_o[6]
+ wbs_dat_o[7] wbs_dat_o[8] wbs_dat_o[9] wbs_sel_i[0] wbs_sel_i[1] wbs_sel_i[2] wbs_sel_i[3]
+ wbs_stb_i wbs_we_i
C0 divider_0/tspc_0/Z3 divider_0/tspc_0/Z4 0.65fF
C1 divider_0/tspc_1/Q divider_0/tspc_2/Z1 0.01fF
C2 divider_0/prescaler_0/tspc_2/Z2 gnd 0.16fF
C3 divider_0/prescaler_0/tspc_2/Z3 divider_0/prescaler_0/tspc_2/D 0.05fF
C4 divider_0/prescaler_0/tspc_1/Z2 divider_0/prescaler_0/Out 0.19fF
C5 divider_0/tspc_1/a_630_n680# divider_0/tspc_1/Z2 0.01fF
C6 ro_complete_0/a4 ro_complete_0/cbank_2/v 0.05fF
C7 ro_complete_0/cbank_1/switch_4/vin ro_complete_0/cbank_1/v 1.30fF
C8 ro_complete_0/cbank_1/v ro_complete_0/cbank_2/v 1.36fF
C9 pd_0/tspc_r_1/Z4 pd_0/tspc_r_1/z5 0.04fF
C10 divider_0/tspc_0/Z1 divider_0/nor_1/A 0.03fF
C11 divider_0/prescaler_0/tspc_1/Z4 divider_0/prescaler_0/tspc_2/a_740_n680# 0.01fF
C12 divider_0/prescaler_0/tspc_0/Z4 divider_0/prescaler_0/tspc_0/D 0.11fF
C13 divider_0/prescaler_0/tspc_2/a_740_n680# divider_0/prescaler_0/tspc_1/Q 0.15fF
C14 divider_0/prescaler_0/tspc_2/Z2 divider_0/and_0/OUT 0.06fF
C15 ro_complete_0/a5 ro_complete_0/cbank_2/switch_0/vin 0.09fF
C16 divider_0/tspc_0/a_630_n680# divider_0/prescaler_0/Out 0.01fF
C17 divider_0/prescaler_0/tspc_0/a_740_n680# divider_0/clk 0.01fF
C18 pd_0/tspc_r_0/Qbar1 pd_0/tspc_r_0/z5 0.20fF
C19 divider_0/nor_1/A divider_0/tspc_0/Q 0.55fF
C20 divider_0/prescaler_0/tspc_1/Q divider_0/prescaler_0/tspc_2/D 0.32fF
C21 divider_0/prescaler_0/tspc_2/a_630_n680# divider_0/clk 0.01fF
C22 divider_0/tspc_1/a_630_n680# divider_0/tspc_1/Z4 0.12fF
C23 ro_complete_0/cbank_0/switch_3/vin ro_complete_0/cbank_0/switch_2/vin 0.20fF
C24 divider_0/tspc_0/a_630_n680# divider_0/nor_1/B 0.01fF
C25 ro_complete_0/a1 ro_complete_0/cbank_2/v 0.05fF
C26 cp_0/a_1710_n2840# cp_0/out 0.61fF
C27 pd_0/REF pd_0/tspc_r_1/Z4 0.02fF
C28 pd_0/UP pd_0/tspc_r_1/Qbar 0.21fF
C29 pd_0/tspc_r_0/Z2 pd_0/tspc_r_0/Z4 0.14fF
C30 divider_0/prescaler_0/m1_2700_2190# divider_0/nor_1/A 0.01fF
C31 divider_0/prescaler_0/tspc_1/Z1 divider_0/prescaler_0/tspc_1/Z4 0.00fF
C32 pd_0/DOWN pd_0/and_pd_0/Z1 0.07fF
C33 divider_0/tspc_2/Z1 divider_0/tspc_2/Z4 0.00fF
C34 gnd divider_0/tspc_0/Q 0.33fF
C35 ro_complete_0/a2 ro_complete_0/cbank_1/switch_3/vin 0.09fF
C36 divider_0/nor_1/A divider_0/tspc_0/Z2 0.23fF
C37 divider_0/prescaler_0/tspc_2/a_740_n680# divider_0/prescaler_0/tspc_2/Z4 0.08fF
C38 divider_0/prescaler_0/tspc_2/a_630_n680# divider_0/prescaler_0/tspc_2/Z3 0.05fF
C39 divider_0/prescaler_0/m1_2700_2190# gnd 0.22fF
C40 divider_0/tspc_1/Q divider_0/tspc_2/Z3 0.45fF
C41 divider_0/tspc_0/Z2 gnd 0.16fF
C42 divider_0/prescaler_0/tspc_2/Z4 divider_0/prescaler_0/tspc_2/D 0.11fF
C43 divider_0/tspc_1/a_630_n680# divider_0/tspc_1/Q 0.04fF
C44 ro_complete_0/cbank_0/switch_2/vin ro_complete_0/cbank_0/v 1.30fF
C45 ro_complete_0/cbank_1/switch_0/vin ro_complete_0/cbank_1/v 1.45fF
C46 divider_0/nor_1/B divider_0/mc2 0.06fF
C47 divider_0/prescaler_0/tspc_0/a_630_n680# gnd 0.61fF
C48 ro_complete_0/cbank_1/switch_3/vin ro_complete_0/cbank_1/switch_4/vin 0.20fF
C49 pd_0/R pd_0/tspc_r_1/Z2 0.21fF
C50 divider_0/tspc_1/Z2 divider_0/nor_1/A 0.15fF
C51 divider_0/prescaler_0/m1_2700_2190# divider_0/and_0/OUT 0.14fF
C52 io_clamp_low[2] io_analog[6] 0.53fF
C53 divider_0/nor_0/Z1 divider_0/and_0/B 0.78fF
C54 divider_0/tspc_1/Z2 gnd 0.16fF
C55 divider_0/prescaler_0/tspc_0/Z4 divider_0/clk 0.12fF
C56 divider_0/tspc_0/a_630_n680# divider_0/tspc_0/Q 0.04fF
C57 divider_0/prescaler_0/tspc_1/Q divider_0/prescaler_0/nand_1/z1 0.22fF
C58 divider_0/prescaler_0/tspc_0/Q divider_0/prescaler_0/tspc_2/D 0.04fF
C59 pd_0/tspc_r_1/Z3 pd_0/tspc_r_1/z5 0.11fF
C60 pd_0/R pd_0/and_pd_0/Out1 0.33fF
C61 divider_0/tspc_2/Z3 divider_0/tspc_2/Z4 0.65fF
C62 ro_complete_0/a2 ro_complete_0/cbank_0/switch_3/vin 0.09fF
C63 divider_0/tspc_0/a_630_n680# divider_0/tspc_0/Z2 0.01fF
C64 divider_0/prescaler_0/tspc_0/Z3 gnd 0.27fF
C65 divider_0/nor_1/A divider_0/tspc_1/Z4 0.02fF
C66 divider_0/prescaler_0/tspc_2/Z1 divider_0/prescaler_0/tspc_2/Z2 1.07fF
C67 divider_0/prescaler_0/tspc_2/a_630_n680# divider_0/prescaler_0/tspc_2/Z4 0.12fF
C68 divider_0/prescaler_0/tspc_1/a_630_n680# gnd 0.61fF
C69 divider_0/tspc_1/Q divider_0/tspc_2/Z4 0.15fF
C70 divider_0/tspc_1/Z4 gnd 0.44fF
C71 divider_0/prescaler_0/tspc_1/Z3 divider_0/prescaler_0/Out 0.11fF
C72 ro_complete_0/cbank_2/switch_3/vin ro_complete_0/cbank_2/switch_2/vin 0.20fF
C73 ro_complete_0/cbank_0/switch_4/vin ro_complete_0/cbank_0/switch_5/vin 0.20fF
C74 pd_0/DIV pd_0/tspc_r_0/Z3 0.65fF
C75 ro_complete_0/a5 ro_complete_0/cbank_2/v 0.08fF
C76 ro_complete_0/a0 ro_complete_0/cbank_1/switch_5/vin 0.09fF
C77 pd_0/REF pd_0/tspc_r_1/Z3 0.65fF
C78 divider_0/prescaler_0/tspc_1/a_630_n680# divider_0/prescaler_0/tspc_1/Z2 0.01fF
C79 pd_0/and_pd_0/Z1 pd_0/UP 0.06fF
C80 pd_0/tspc_r_0/Z3 pd_0/DOWN 0.03fF
C81 gnd divider_0/tspc_2/Z3 0.27fF
C82 divider_0/tspc_1/a_630_n680# gnd 0.62fF
C83 divider_0/prescaler_0/tspc_0/Z1 divider_0/prescaler_0/tspc_0/D 0.15fF
C84 divider_0/nor_0/Z1 gnd 0.01fF
C85 divider_0/prescaler_0/m1_2700_2190# divider_0/prescaler_0/tspc_0/D 0.16fF
C86 divider_0/prescaler_0/Out divider_0/clk 0.51fF
C87 filter_0/a_4216_n2998# filter_0/v 0.31fF
C88 divider_0/prescaler_0/tspc_0/a_740_n680# divider_0/prescaler_0/tspc_0/Q 0.20fF
C89 divider_0/tspc_1/Q gnd 0.33fF
C90 divider_0/prescaler_0/tspc_0/a_630_n680# divider_0/mc2 0.33fF
C91 divider_0/prescaler_0/tspc_0/Z2 divider_0/prescaler_0/tspc_0/Z4 0.36fF
C92 divider_0/nor_1/Z1 divider_0/and_0/A 0.80fF
C93 divider_0/nor_1/B divider_0/tspc_1/Z1 0.03fF
C94 divider_0/nor_1/A divider_0/and_0/B 0.08fF
C95 divider_0/prescaler_0/tspc_0/Q divider_0/prescaler_0/nand_1/z1 0.01fF
C96 divider_0/prescaler_0/tspc_2/Z3 divider_0/prescaler_0/Out 0.05fF
C97 divider_0/prescaler_0/tspc_2/Z2 divider_0/clk 0.11fF
C98 ro_complete_0/cbank_0/switch_3/vin ro_complete_0/cbank_0/switch_4/vin 0.20fF
C99 ro_complete_0/cbank_0/v ro_complete_0/cbank_2/v 0.04fF
C100 pd_0/UP pd_0/tspc_r_1/z5 0.03fF
C101 gnd divider_0/and_0/B 0.45fF
C102 divider_0/nor_1/B divider_0/nor_0/B 0.47fF
C103 divider_0/prescaler_0/tspc_2/Z2 divider_0/prescaler_0/tspc_2/Z3 0.16fF
C104 divider_0/prescaler_0/tspc_1/Z4 divider_0/prescaler_0/Out 0.28fF
C105 ro_complete_0/a5 ro_complete_0/cbank_1/switch_0/vin 0.09fF
C106 ro_complete_0/cbank_0/switch_4/vin ro_complete_0/cbank_0/v 1.30fF
C107 pd_0/tspc_r_0/Z3 pd_0/tspc_r_0/Qbar1 0.38fF
C108 ro_complete_0/cbank_0/switch_0/vin ro_complete_0/a4 0.12fF
C109 ro_complete_0/a0 ro_complete_0/cbank_1/v 0.05fF
C110 pd_0/tspc_r_1/Z3 pd_0/tspc_r_1/Qbar1 0.38fF
C111 divider_0/prescaler_0/m1_2700_2190# divider_0/prescaler_0/tspc_1/Z3 0.33fF
C112 pd_0/tspc_r_0/Z3 pd_0/tspc_r_0/Z1 0.09fF
C113 pd_0/DIV pd_0/tspc_r_0/Z2 0.19fF
C114 divider_0/and_0/OUT divider_0/and_0/B 0.01fF
C115 gnd divider_0/tspc_2/Z4 0.44fF
C116 divider_0/prescaler_0/tspc_1/Q divider_0/prescaler_0/Out 0.91fF
C117 ro_complete_0/cbank_0/switch_0/vin ro_complete_0/cbank_0/switch_1/vin 0.19fF
C118 divider_0/prescaler_0/tspc_0/Z3 divider_0/prescaler_0/tspc_0/D 0.05fF
C119 divider_0/prescaler_0/m1_2700_2190# divider_0/prescaler_0/nand_0/z1 0.07fF
C120 divider_0/prescaler_0/tspc_2/a_740_n680# divider_0/prescaler_0/tspc_2/a_630_n680# 0.19fF
C121 divider_0/prescaler_0/Out divider_0/tspc_0/Z4 0.12fF
C122 filter_0/a_4216_n5230# filter_0/v 0.19fF
C123 io_clamp_high[1] io_analog[5] 0.53fF
C124 divider_0/tspc_1/Z1 divider_0/tspc_0/Q 0.01fF
C125 divider_0/prescaler_0/tspc_2/Z2 divider_0/prescaler_0/tspc_1/Q 0.06fF
C126 divider_0/prescaler_0/m1_2700_2190# divider_0/clk 0.01fF
C127 divider_0/nor_1/A gnd 1.02fF
C128 ro_complete_0/a3 ro_complete_0/cbank_1/v 0.05fF
C129 divider_0/prescaler_0/tspc_2/D divider_0/prescaler_0/nand_1/z1 0.21fF
C130 ro_complete_0/cbank_2/switch_1/vin ro_complete_0/cbank_2/switch_2/vin 0.20fF
C131 ro_complete_0/cbank_0/switch_1/vin ro_complete_0/a3 0.13fF
C132 pd_0/tspc_r_1/Z2 pd_0/tspc_r_1/Z4 0.14fF
C133 io_analog[0] io_analog[1] 12.30fF
C134 divider_0/prescaler_0/tspc_0/a_630_n680# divider_0/clk 0.01fF
C135 divider_0/nor_1/B divider_0/tspc_2/Z2 0.20fF
C136 divider_0/prescaler_0/tspc_2/Z2 divider_0/prescaler_0/tspc_2/Z4 0.36fF
C137 divider_0/prescaler_0/tspc_1/Z2 gnd 0.17fF
C138 ro_complete_0/cbank_1/switch_5/vin ro_complete_0/cbank_1/v 1.30fF
C139 divider_0/tspc_0/Z1 divider_0/tspc_0/Z4 0.00fF
C140 divider_0/and_0/OUT gnd 0.28fF
C141 divider_0/mc2 divider_0/and_0/B 0.20fF
C142 ro_complete_0/cbank_2/switch_3/vin ro_complete_0/cbank_2/switch_4/vin 0.20fF
C143 ro_complete_0/a2 ro_complete_0/cbank_2/switch_3/vin 0.09fF
C144 pd_0/tspc_r_0/Z4 pd_0/tspc_r_1/Z4 0.02fF
C145 pd_0/REF pd_0/tspc_r_1/Z1 0.17fF
C146 pd_0/tspc_r_1/Qbar1 pd_0/UP 0.11fF
C147 divider_0/tspc_1/Z1 divider_0/tspc_1/Z2 1.07fF
C148 divider_0/nor_1/B divider_0/tspc_1/Z3 0.38fF
C149 divider_0/prescaler_0/m1_2700_2190# divider_0/prescaler_0/tspc_1/Z4 0.08fF
C150 divider_0/prescaler_0/tspc_1/a_630_n680# divider_0/prescaler_0/tspc_1/Z3 0.05fF
C151 pd_0/DIV pd_0/R 0.51fF
C152 pd_0/and_pd_0/Z1 pd_0/tspc_r_1/Qbar 0.02fF
C153 divider_0/nor_0/B divider_0/tspc_2/Z1 0.03fF
C154 divider_0/tspc_2/a_630_n680# divider_0/tspc_2/Z3 0.05fF
C155 ro_complete_0/a2 ro_complete_0/cbank_2/switch_2/vin 0.14fF
C156 pd_0/DOWN pd_0/R 0.36fF
C157 pd_0/tspc_r_0/Z1 pd_0/tspc_r_0/Z2 0.71fF
C158 divider_0/tspc_0/a_630_n680# divider_0/nor_1/A 0.35fF
C159 divider_0/prescaler_0/tspc_1/Z2 divider_0/and_0/OUT 0.06fF
C160 divider_0/prescaler_0/m1_2700_2190# divider_0/prescaler_0/tspc_1/Q 0.38fF
C161 divider_0/and_0/out1 divider_0/and_0/B 0.18fF
C162 io_clamp_low[0] io_analog[4] 0.53fF
C163 divider_0/tspc_0/Z3 divider_0/prescaler_0/Out 0.45fF
C164 divider_0/tspc_0/a_630_n680# gnd 0.62fF
C165 divider_0/prescaler_0/tspc_0/Z3 divider_0/clk 0.45fF
C166 divider_0/tspc_1/Q divider_0/tspc_2/a_630_n680# 0.01fF
C167 divider_0/prescaler_0/tspc_1/a_630_n680# divider_0/clk 0.01fF
C168 divider_0/nor_1/B divider_0/and_0/A 0.26fF
C169 divider_0/prescaler_0/tspc_0/Z1 divider_0/prescaler_0/tspc_0/Z2 1.07fF
C170 ro_complete_0/cbank_1/switch_1/vin ro_complete_0/cbank_1/switch_2/vin 0.20fF
C171 ro_complete_0/cbank_2/switch_1/vin ro_complete_0/cbank_2/switch_0/vin 0.19fF
C172 ro_complete_0/cbank_2/switch_3/vin ro_complete_0/cbank_2/v 1.30fF
C173 divider_0/tspc_0/Z2 divider_0/tspc_0/Z4 0.36fF
C174 ro_complete_0/cbank_0/switch_5/vin ro_complete_0/a0 0.09fF
C175 pd_0/R pd_0/tspc_r_1/Z3 0.29fF
C176 ro_complete_0/cbank_2/switch_2/vin ro_complete_0/cbank_2/v 1.30fF
C177 divider_0/mc2 divider_0/nor_1/A 0.04fF
C178 divider_0/tspc_1/Z1 divider_0/tspc_1/Z4 0.00fF
C179 divider_0/prescaler_0/tspc_0/Z2 divider_0/prescaler_0/tspc_0/a_630_n680# 0.01fF
C180 divider_0/mc2 gnd 1.36fF
C181 ro_complete_0/a4 ro_complete_0/cbank_1/v 0.05fF
C182 pd_0/DIV pd_0/tspc_r_0/Z4 0.02fF
C183 divider_0/tspc_1/Z3 divider_0/tspc_0/Q 0.45fF
C184 divider_0/prescaler_0/tspc_2/a_740_n680# divider_0/prescaler_0/Out 0.21fF
C185 divider_0/prescaler_0/tspc_0/D gnd 0.05fF
C186 ro_complete_0/a2 ro_complete_0/cbank_0/switch_2/vin 0.14fF
C187 ro_complete_0/cbank_0/switch_1/vin ro_complete_0/a4 0.09fF
C188 ro_complete_0/cbank_0/switch_0/vin ro_complete_0/a5 0.09fF
C189 divider_0/tspc_0/Z3 divider_0/tspc_0/Z1 0.06fF
C190 divider_0/prescaler_0/tspc_0/a_740_n680# divider_0/prescaler_0/tspc_0/Z4 0.08fF
C191 pd_0/tspc_r_0/z5 pd_0/tspc_r_1/z5 0.02fF
C192 pd_0/tspc_r_1/Z3 pd_0/tspc_r_1/Z2 0.25fF
C193 divider_0/prescaler_0/tspc_1/a_630_n680# divider_0/prescaler_0/tspc_1/Z4 0.12fF
C194 cp_0/a_1710_n2840# cp_0/upbar 0.29fF
C195 pd_0/DOWN pd_0/and_pd_0/Out1 0.12fF
C196 pd_0/tspc_r_0/Qbar1 pd_0/R 0.01fF
C197 gnd divider_0/and_0/out1 0.23fF
C198 divider_0/tspc_2/Z1 divider_0/tspc_2/Z2 1.07fF
C199 divider_0/nor_0/B divider_0/tspc_2/Z3 0.38fF
C200 divider_0/tspc_2/a_630_n680# divider_0/tspc_2/Z4 0.12fF
C201 divider_0/tspc_1/a_630_n680# divider_0/nor_0/B 0.00fF
C202 divider_0/nor_0/Z1 divider_0/nor_0/B 0.06fF
C203 divider_0/mc2 divider_0/and_0/OUT 0.05fF
C204 divider_0/prescaler_0/tspc_1/a_630_n680# divider_0/prescaler_0/tspc_1/Q 0.04fF
C205 io_clamp_low[2] io_clamp_high[2] 0.53fF
C206 divider_0/tspc_0/Z3 divider_0/tspc_0/Q 0.05fF
C207 divider_0/tspc_1/Q divider_0/nor_0/B 0.22fF
C208 divider_0/and_0/OUT divider_0/prescaler_0/tspc_0/D 0.03fF
C209 divider_0/prescaler_0/tspc_2/Z2 divider_0/prescaler_0/tspc_2/D 0.09fF
C210 divider_0/prescaler_0/tspc_1/Z1 divider_0/prescaler_0/Out 0.08fF
C211 divider_0/prescaler_0/tspc_0/Z2 divider_0/prescaler_0/tspc_0/Z3 0.16fF
C212 ro_complete_0/a1 ro_complete_0/cbank_1/v 0.05fF
C213 ro_complete_0/cbank_2/switch_0/vin ro_complete_0/cbank_2/v 1.44fF
C214 divider_0/and_0/OUT divider_0/and_0/out1 0.31fF
C215 gnd divider_0/tspc_2/a_630_n680# 0.61fF
C216 divider_0/prescaler_0/tspc_0/a_630_n680# divider_0/prescaler_0/tspc_0/Q 0.04fF
C217 ro_complete_0/cbank_0/switch_0/vin ro_complete_0/cbank_0/v 1.30fF
C218 divider_0/tspc_0/Z3 divider_0/tspc_0/Z2 0.16fF
C219 ro_complete_0/cbank_2/switch_4/vin ro_complete_0/cbank_2/switch_5/vin 0.20fF
C220 pd_0/R pd_0/UP 0.45fF
C221 divider_0/tspc_1/Z2 divider_0/tspc_1/Z3 0.16fF
C222 divider_0/nor_0/B divider_0/and_0/B 0.29fF
C223 divider_0/prescaler_0/tspc_1/Z3 gnd 0.27fF
C224 pd_0/tspc_r_0/Z3 pd_0/tspc_r_0/z5 0.11fF
C225 divider_0/prescaler_0/nand_0/z1 gnd 0.16fF
C226 divider_0/prescaler_0/tspc_2/a_630_n680# divider_0/prescaler_0/Out 0.04fF
C227 ro_complete_0/cbank_2/switch_1/vin ro_complete_0/cbank_2/v 1.30fF
C228 pd_0/tspc_r_1/Qbar1 pd_0/tspc_r_1/Qbar 0.01fF
C229 divider_0/nor_1/Z1 divider_0/nor_1/B 0.06fF
C230 ro_complete_0/cbank_1/switch_3/vin ro_complete_0/cbank_1/v 1.30fF
C231 divider_0/prescaler_0/tspc_1/Z2 divider_0/prescaler_0/tspc_1/Z3 0.16fF
C232 ro_complete_0/cbank_2/switch_5/vin ro_complete_0/cbank_2/v 1.30fF
C233 divider_0/tspc_2/Z2 divider_0/tspc_2/Z3 0.16fF
C234 divider_0/nor_0/B divider_0/tspc_2/Z4 0.22fF
C235 gnd divider_0/clk 0.07fF
C236 io_analog[0] cp_1/a_1710_0# 0.84fF
C237 divider_0/prescaler_0/tspc_0/Z3 divider_0/prescaler_0/tspc_0/Q 0.05fF
C238 divider_0/tspc_1/Z3 divider_0/tspc_1/Z4 0.65fF
C239 divider_0/prescaler_0/tspc_2/a_630_n680# divider_0/prescaler_0/tspc_2/Z2 0.01fF
C240 cp_0/a_1710_0# cp_0/a_1710_n2840# 0.83fF
C241 divider_0/mc2 divider_0/and_0/out1 0.06fF
C242 divider_0/tspc_1/Q divider_0/tspc_2/Z2 0.14fF
C243 divider_0/and_0/OUT divider_0/prescaler_0/nand_0/z1 0.01fF
C244 divider_0/prescaler_0/tspc_2/Z3 gnd 0.27fF
C245 divider_0/prescaler_0/tspc_1/Z2 divider_0/clk 0.11fF
C246 divider_0/tspc_1/a_630_n680# divider_0/tspc_1/Z3 0.05fF
C247 pd_0/and_pd_0/Out1 pd_0/UP 0.33fF
C248 divider_0/and_0/OUT divider_0/clk 0.04fF
C249 gnd divider_0/nor_0/B 1.08fF
C250 ro_complete_0/cbank_2/switch_4/vin ro_complete_0/cbank_2/v 1.30fF
C251 ro_complete_0/a2 ro_complete_0/cbank_2/v 0.05fF
C252 divider_0/tspc_1/Z3 divider_0/tspc_1/Q 0.05fF
C253 divider_0/nor_1/A divider_0/prescaler_0/tspc_1/Q 0.03fF
C254 divider_0/prescaler_0/tspc_1/Z4 gnd 0.44fF
C255 ro_complete_0/a5 ro_complete_0/cbank_1/v 0.10fF
C256 divider_0/nor_1/A divider_0/tspc_0/Z4 0.21fF
C257 divider_0/prescaler_0/tspc_1/Q gnd 0.83fF
C258 pd_0/tspc_r_1/Z1 pd_0/tspc_r_1/Z2 0.71fF
C259 pd_0/tspc_r_1/Z3 pd_0/tspc_r_1/Z4 0.20fF
C260 pd_0/REF pd_0/tspc_r_1/z5 0.04fF
C261 divider_0/prescaler_0/tspc_1/Z2 divider_0/prescaler_0/tspc_1/Z4 0.36fF
C262 divider_0/tspc_2/Z2 divider_0/tspc_2/Z4 0.36fF
C263 divider_0/tspc_2/Z3 divider_0/Out 0.05fF
C264 gnd divider_0/tspc_0/Z4 0.44fF
C265 io_analog[1] cp_1/a_1710_0# 0.32fF
C266 divider_0/prescaler_0/tspc_0/Z2 gnd 0.16fF
C267 divider_0/prescaler_0/tspc_1/Z2 divider_0/prescaler_0/tspc_1/Q 0.06fF
C268 divider_0/and_0/A divider_0/and_0/B 0.18fF
C269 io_clamp_low[1] io_clamp_high[1] 0.53fF
C270 divider_0/prescaler_0/tspc_0/D divider_0/prescaler_0/nand_0/z1 0.24fF
C271 divider_0/prescaler_0/tspc_2/Z4 gnd 0.44fF
C272 divider_0/prescaler_0/tspc_0/a_740_n680# divider_0/prescaler_0/tspc_0/a_630_n680# 0.19fF
C273 ro_complete_0/cbank_1/switch_1/vin ro_complete_0/cbank_1/switch_0/vin 0.19fF
C274 ro_complete_0/cbank_0/v ro_complete_0/cbank_1/v 1.27fF
C275 gnd divider_0/tspc_2/Z2 0.16fF
C276 divider_0/prescaler_0/tspc_0/D divider_0/clk 0.26fF
C277 ro_complete_0/cbank_0/switch_3/vin ro_complete_0/a1 0.14fF
C278 ro_complete_0/cbank_0/switch_1/vin ro_complete_0/cbank_0/v 1.30fF
C279 divider_0/prescaler_0/tspc_0/Z2 divider_0/and_0/OUT 0.05fF
C280 pd_0/R pd_0/tspc_r_1/Qbar 0.03fF
C281 io_clamp_high[2] io_analog[6] 0.53fF
C282 cp_0/a_1710_0# cp_0/a_10_n50# 0.04fF
C283 divider_0/tspc_1/Z3 gnd 0.27fF
C284 divider_0/mc2 divider_0/nor_0/B 0.15fF
C285 divider_0/prescaler_0/tspc_0/Z1 divider_0/prescaler_0/tspc_0/Z4 0.00fF
C286 divider_0/tspc_0/a_630_n680# divider_0/tspc_0/Z4 0.12fF
C287 divider_0/prescaler_0/tspc_0/Q gnd 0.35fF
C288 divider_0/nor_1/A divider_0/and_0/A 0.01fF
C289 divider_0/prescaler_0/tspc_0/Z3 divider_0/prescaler_0/tspc_0/a_740_n680# 0.33fF
C290 ro_complete_0/a3 ro_complete_0/cbank_2/switch_2/vin 0.09fF
C291 divider_0/tspc_0/Z3 divider_0/nor_1/A 0.38fF
C292 pd_0/tspc_r_1/Qbar1 pd_0/tspc_r_1/z5 0.20fF
C293 gnd divider_0/and_0/A 0.53fF
C294 divider_0/tspc_0/Z3 gnd 0.27fF
C295 divider_0/prescaler_0/tspc_2/Z1 divider_0/prescaler_0/tspc_2/Z3 0.06fF
C296 divider_0/prescaler_0/tspc_0/a_630_n680# divider_0/prescaler_0/tspc_0/Z4 0.12fF
C297 divider_0/and_0/OUT divider_0/prescaler_0/tspc_0/Q 0.04fF
C298 divider_0/prescaler_0/tspc_1/Z3 divider_0/clk 0.45fF
C299 ro_complete_0/a3 ro_complete_0/cbank_1/switch_2/vin 0.09fF
C300 pd_0/DIV pd_0/tspc_r_0/Qbar1 0.12fF
C301 cp_0/vbias cp_0/a_10_n50# 0.19fF
C302 pd_0/REF pd_0/tspc_r_1/Qbar1 0.12fF
C303 pd_0/and_pd_0/Out1 pd_0/tspc_r_1/Qbar 0.05fF
C304 pd_0/DIV pd_0/tspc_r_0/Z1 0.17fF
C305 pd_0/tspc_r_0/Qbar1 pd_0/DOWN 0.11fF
C306 divider_0/tspc_2/a_630_n680# divider_0/nor_0/B 0.35fF
C307 gnd divider_0/Out 0.29fF
C308 divider_0/prescaler_0/tspc_0/Z2 divider_0/prescaler_0/tspc_0/D 0.09fF
C309 cp_1/a_10_n50# cp_1/a_1710_0# 0.04fF
C310 io_clamp_low[1] io_analog[5] 0.53fF
C311 divider_0/nor_1/B divider_0/tspc_0/Q 0.22fF
C312 divider_0/prescaler_0/m1_2700_2190# divider_0/prescaler_0/Out 0.11fF
C313 divider_0/prescaler_0/tspc_2/a_740_n680# gnd 0.22fF
C314 ro_complete_0/cbank_0/switch_2/vin ro_complete_0/a3 0.09fF
C315 divider_0/prescaler_0/tspc_0/Z3 divider_0/prescaler_0/tspc_0/Z4 0.65fF
C316 pd_0/tspc_r_0/Z4 pd_0/tspc_r_0/z5 0.04fF
C317 divider_0/nor_1/Z1 divider_0/and_0/B 0.18fF
C318 divider_0/tspc_0/Z2 divider_0/prescaler_0/Out 0.11fF
C319 divider_0/prescaler_0/tspc_2/D gnd 0.05fF
C320 divider_0/prescaler_0/tspc_2/Z3 divider_0/clk 0.64fF
C321 divider_0/tspc_0/Z3 divider_0/tspc_0/a_630_n680# 0.05fF
C322 ro_complete_0/cbank_0/switch_5/vin ro_complete_0/cbank_0/v 1.30fF
C323 ro_complete_0/a0 ro_complete_0/cbank_2/switch_5/vin 0.09fF
C324 pd_0/DOWN pd_0/UP 0.46fF
C325 divider_0/prescaler_0/tspc_1/Z2 divider_0/prescaler_0/tspc_2/a_740_n680# 0.01fF
C326 divider_0/prescaler_0/tspc_1/Z3 divider_0/prescaler_0/tspc_1/Z4 0.65fF
C327 pd_0/R pd_0/and_pd_0/Z1 0.02fF
C328 io_analog[2] io_analog[1] 0.02fF
C329 divider_0/prescaler_0/tspc_2/Z1 divider_0/prescaler_0/tspc_2/Z4 0.00fF
C330 divider_0/prescaler_0/tspc_1/Z3 divider_0/prescaler_0/tspc_1/Q 0.21fF
C331 divider_0/and_0/B divider_0/and_0/Z1 0.07fF
C332 io_clamp_low[0] io_clamp_high[0] 0.53fF
C333 divider_0/mc2 divider_0/and_0/A 0.16fF
C334 divider_0/prescaler_0/tspc_1/Z4 divider_0/clk 0.12fF
C335 ro_complete_0/a3 ro_complete_0/cbank_2/switch_1/vin 0.13fF
C336 pd_0/tspc_r_1/Z3 pd_0/UP 0.03fF
C337 divider_0/nor_1/B divider_0/tspc_1/Z2 0.30fF
C338 divider_0/prescaler_0/tspc_1/Z1 divider_0/prescaler_0/tspc_1/Z2 1.07fF
C339 pd_0/tspc_r_0/Z3 pd_0/tspc_r_0/Z2 0.25fF
C340 divider_0/tspc_2/a_630_n680# divider_0/tspc_2/Z2 0.01fF
C341 divider_0/prescaler_0/tspc_1/Q divider_0/clk 0.60fF
C342 ro_complete_0/a0 ro_complete_0/cbank_2/switch_4/vin 0.13fF
C343 ro_complete_0/cbank_0/switch_3/vin ro_complete_0/cbank_0/v 1.30fF
C344 pd_0/DOWN pd_0/tspc_r_0/Qbar 0.21fF
C345 divider_0/tspc_0/Z1 divider_0/tspc_0/Z2 1.07fF
C346 divider_0/and_0/out1 divider_0/and_0/A 0.01fF
C347 divider_0/prescaler_0/tspc_0/a_740_n680# gnd 0.22fF
C348 divider_0/prescaler_0/tspc_0/Z2 divider_0/clk 0.11fF
C349 divider_0/nor_1/Z1 gnd 0.01fF
C350 divider_0/prescaler_0/tspc_2/Z3 divider_0/prescaler_0/tspc_1/Q 0.13fF
C351 divider_0/prescaler_0/tspc_2/a_630_n680# gnd 0.63fF
C352 ro_complete_0/cbank_2/switch_3/vin ro_complete_0/a1 0.14fF
C353 ro_complete_0/cbank_1/switch_2/vin ro_complete_0/cbank_1/v 1.30fF
C354 cp_0/upbar cp_0/down 0.02fF
C355 gnd divider_0/prescaler_0/nand_1/z1 0.16fF
C356 divider_0/prescaler_0/tspc_2/Z4 divider_0/clk 0.12fF
C357 pd_0/and_pd_0/Out1 pd_0/and_pd_0/Z1 0.18fF
C358 ro_complete_0/a0 ro_complete_0/cbank_2/v 0.05fF
C359 pd_0/R pd_0/REF 0.61fF
C360 divider_0/nor_1/B divider_0/tspc_1/Z4 0.21fF
C361 gnd divider_0/and_0/Z1 0.41fF
C362 cp_0/a_1710_0# cp_0/out 0.84fF
C363 divider_0/prescaler_0/tspc_2/Z3 divider_0/prescaler_0/tspc_2/Z4 0.65fF
C364 divider_0/tspc_1/a_630_n680# divider_0/nor_1/B 0.35fF