* SPICE3 file created from user_analog_project_wrapper.ext - technology: sky130A

.subckt user_analog_project_wrapper gpio_analog[0] gpio_analog[10] gpio_analog[11]
+ gpio_analog[12] gpio_analog[13] gpio_analog[14] gpio_analog[15] gpio_analog[16]
+ gpio_analog[17] gpio_analog[1] gpio_analog[2] gpio_analog[3] gpio_analog[4] gpio_analog[5]
+ gpio_analog[6] gpio_analog[7] gpio_analog[8] gpio_analog[9] gpio_noesd[0] gpio_noesd[10]
+ gpio_noesd[11] gpio_noesd[12] gpio_noesd[13] gpio_noesd[14] gpio_noesd[15] gpio_noesd[16]
+ gpio_noesd[17] gpio_noesd[1] gpio_noesd[2] gpio_noesd[3] gpio_noesd[4] gpio_noesd[5]
+ gpio_noesd[6] gpio_noesd[7] gpio_noesd[8] gpio_noesd[9] io_analog[0] io_analog[10]
+ io_analog[1] io_analog[2] io_analog[3] io_analog[4] io_analog[5] io_analog[6] io_analog[7]
+ io_analog[8] io_analog[9] io_clamp_high[0] io_clamp_high[1] io_clamp_high[2] io_clamp_low[0]
+ io_clamp_low[1] io_clamp_low[2] io_in[0] io_in[10] io_in[11] io_in[12] io_in[13]
+ io_in[14] io_in[15] io_in[16] io_in[17] io_in[18] io_in[19] io_in[1] io_in[20] io_in[21]
+ io_in[22] io_in[23] io_in[24] io_in[25] io_in[26] io_in[2] io_in[3] io_in[4] io_in[5]
+ io_in[6] io_in[7] io_in[8] io_in[9] io_in_3v3[0] io_in_3v3[10] io_in_3v3[11] io_in_3v3[12]
+ io_in_3v3[13] io_in_3v3[14] io_in_3v3[15] io_in_3v3[16] io_in_3v3[17] io_in_3v3[18]
+ io_in_3v3[19] io_in_3v3[1] io_in_3v3[20] io_in_3v3[21] io_in_3v3[22] io_in_3v3[23]
+ io_in_3v3[24] io_in_3v3[25] io_in_3v3[26] io_in_3v3[2] io_in_3v3[3] io_in_3v3[4]
+ io_in_3v3[5] io_in_3v3[6] io_in_3v3[7] io_in_3v3[8] io_in_3v3[9] io_oeb[0] io_oeb[10]
+ io_oeb[11] io_oeb[12] io_oeb[13] io_oeb[14] io_oeb[15] io_oeb[16] io_oeb[17] io_oeb[18]
+ io_oeb[19] io_oeb[1] io_oeb[20] io_oeb[21] io_oeb[22] io_oeb[23] io_oeb[24] io_oeb[25]
+ io_oeb[26] io_oeb[2] io_oeb[3] io_oeb[4] io_oeb[5] io_oeb[6] io_oeb[7] io_oeb[8]
+ io_oeb[9] io_out[0] io_out[10] io_out[11] io_out[12] io_out[13] io_out[14] io_out[15]
+ io_out[16] io_out[17] io_out[18] io_out[19] io_out[1] io_out[20] io_out[21] io_out[22]
+ io_out[23] io_out[24] io_out[25] io_out[26] io_out[2] io_out[3] io_out[4] io_out[5]
+ io_out[6] io_out[7] io_out[8] io_out[9] la_data_in[0] la_data_in[100] la_data_in[101]
+ la_data_in[102] la_data_in[103] la_data_in[104] la_data_in[105] la_data_in[106]
+ la_data_in[107] la_data_in[108] la_data_in[109] la_data_in[10] la_data_in[110] la_data_in[111]
+ la_data_in[112] la_data_in[113] la_data_in[114] la_data_in[115] la_data_in[116]
+ la_data_in[117] la_data_in[118] la_data_in[119] la_data_in[11] la_data_in[120] la_data_in[121]
+ la_data_in[122] la_data_in[123] la_data_in[124] la_data_in[125] la_data_in[126]
+ la_data_in[127] la_data_in[12] la_data_in[13] la_data_in[14] la_data_in[15] la_data_in[16]
+ la_data_in[17] la_data_in[18] la_data_in[19] la_data_in[1] la_data_in[20] la_data_in[21]
+ la_data_in[22] la_data_in[23] la_data_in[24] la_data_in[25] la_data_in[26] la_data_in[27]
+ la_data_in[28] la_data_in[29] la_data_in[2] la_data_in[30] la_data_in[31] la_data_in[32]
+ la_data_in[33] la_data_in[34] la_data_in[35] la_data_in[36] la_data_in[37] la_data_in[38]
+ la_data_in[39] la_data_in[3] la_data_in[40] la_data_in[41] la_data_in[42] la_data_in[43]
+ la_data_in[44] la_data_in[45] la_data_in[46] la_data_in[47] la_data_in[48] la_data_in[49]
+ la_data_in[4] la_data_in[50] la_data_in[51] la_data_in[52] la_data_in[53] la_data_in[54]
+ la_data_in[55] la_data_in[56] la_data_in[57] la_data_in[58] la_data_in[59] la_data_in[5]
+ la_data_in[60] la_data_in[61] la_data_in[62] la_data_in[63] la_data_in[64] la_data_in[65]
+ la_data_in[66] la_data_in[67] la_data_in[68] la_data_in[69] la_data_in[6] la_data_in[70]
+ la_data_in[71] la_data_in[72] la_data_in[73] la_data_in[74] la_data_in[75] la_data_in[76]
+ la_data_in[77] la_data_in[78] la_data_in[79] la_data_in[7] la_data_in[80] la_data_in[81]
+ la_data_in[82] la_data_in[83] la_data_in[84] la_data_in[85] la_data_in[86] la_data_in[87]
+ la_data_in[88] la_data_in[89] la_data_in[8] la_data_in[90] la_data_in[91] la_data_in[92]
+ la_data_in[93] la_data_in[94] la_data_in[95] la_data_in[96] la_data_in[97] la_data_in[98]
+ la_data_in[99] la_data_in[9] la_data_out[0] la_data_out[100] la_data_out[101] la_data_out[102]
+ la_data_out[103] la_data_out[104] la_data_out[105] la_data_out[106] la_data_out[107]
+ la_data_out[108] la_data_out[109] la_data_out[10] la_data_out[110] la_data_out[111]
+ la_data_out[112] la_data_out[113] la_data_out[114] la_data_out[115] la_data_out[116]
+ la_data_out[117] la_data_out[118] la_data_out[119] la_data_out[11] la_data_out[120]
+ la_data_out[121] la_data_out[122] la_data_out[123] la_data_out[124] la_data_out[125]
+ la_data_out[126] la_data_out[127] la_data_out[12] la_data_out[13] la_data_out[14]
+ la_data_out[15] la_data_out[16] la_data_out[17] la_data_out[18] la_data_out[19]
+ la_data_out[1] la_data_out[20] la_data_out[21] la_data_out[22] la_data_out[23] la_data_out[24]
+ la_data_out[25] la_data_out[26] la_data_out[27] la_data_out[28] la_data_out[29]
+ la_data_out[2] la_data_out[30] la_data_out[31] la_data_out[32] la_data_out[33] la_data_out[34]
+ la_data_out[35] la_data_out[36] la_data_out[37] la_data_out[38] la_data_out[39]
+ la_data_out[3] la_data_out[40] la_data_out[41] la_data_out[42] la_data_out[43] la_data_out[44]
+ la_data_out[45] la_data_out[46] la_data_out[47] la_data_out[48] la_data_out[49]
+ la_data_out[4] la_data_out[50] la_data_out[51] la_data_out[52] la_data_out[53] la_data_out[54]
+ la_data_out[55] la_data_out[56] la_data_out[57] la_data_out[58] la_data_out[59]
+ la_data_out[5] la_data_out[60] la_data_out[61] la_data_out[62] la_data_out[63] la_data_out[64]
+ la_data_out[65] la_data_out[66] la_data_out[67] la_data_out[68] la_data_out[69]
+ la_data_out[6] la_data_out[70] la_data_out[71] la_data_out[72] la_data_out[73] la_data_out[74]
+ la_data_out[75] la_data_out[76] la_data_out[77] la_data_out[78] la_data_out[79]
+ la_data_out[7] la_data_out[80] la_data_out[81] la_data_out[82] la_data_out[83] la_data_out[84]
+ la_data_out[85] la_data_out[86] la_data_out[87] la_data_out[88] la_data_out[89]
+ la_data_out[8] la_data_out[90] la_data_out[91] la_data_out[92] la_data_out[93] la_data_out[94]
+ la_data_out[95] la_data_out[96] la_data_out[97] la_data_out[98] la_data_out[99]
+ la_data_out[9] la_oenb[0] la_oenb[100] la_oenb[101] la_oenb[102] la_oenb[103] la_oenb[104]
+ la_oenb[105] la_oenb[106] la_oenb[107] la_oenb[108] la_oenb[109] la_oenb[10] la_oenb[110]
+ la_oenb[111] la_oenb[112] la_oenb[113] la_oenb[114] la_oenb[115] la_oenb[116] la_oenb[117]
+ la_oenb[118] la_oenb[119] la_oenb[11] la_oenb[120] la_oenb[121] la_oenb[122] la_oenb[123]
+ la_oenb[124] la_oenb[125] la_oenb[126] la_oenb[127] la_oenb[12] la_oenb[13] la_oenb[14]
+ la_oenb[15] la_oenb[16] la_oenb[17] la_oenb[18] la_oenb[19] la_oenb[1] la_oenb[20]
+ la_oenb[21] la_oenb[22] la_oenb[23] la_oenb[24] la_oenb[25] la_oenb[26] la_oenb[27]
+ la_oenb[28] la_oenb[29] la_oenb[2] la_oenb[30] la_oenb[31] la_oenb[32] la_oenb[33]
+ la_oenb[34] la_oenb[35] la_oenb[36] la_oenb[37] la_oenb[38] la_oenb[39] la_oenb[3]
+ la_oenb[40] la_oenb[41] la_oenb[42] la_oenb[43] la_oenb[44] la_oenb[45] la_oenb[46]
+ la_oenb[47] la_oenb[48] la_oenb[49] la_oenb[4] la_oenb[50] la_oenb[51] la_oenb[52]
+ la_oenb[53] la_oenb[54] la_oenb[55] la_oenb[56] la_oenb[57] la_oenb[58] la_oenb[59]
+ la_oenb[5] la_oenb[60] la_oenb[61] la_oenb[62] la_oenb[63] la_oenb[64] la_oenb[65]
+ la_oenb[66] la_oenb[67] la_oenb[68] la_oenb[69] la_oenb[6] la_oenb[70] la_oenb[71]
+ la_oenb[72] la_oenb[73] la_oenb[74] la_oenb[75] la_oenb[76] la_oenb[77] la_oenb[78]
+ la_oenb[79] la_oenb[7] la_oenb[80] la_oenb[81] la_oenb[82] la_oenb[83] la_oenb[84]
+ la_oenb[85] la_oenb[86] la_oenb[87] la_oenb[88] la_oenb[89] la_oenb[8] la_oenb[90]
+ la_oenb[91] la_oenb[92] la_oenb[93] la_oenb[94] la_oenb[95] la_oenb[96] la_oenb[97]
+ la_oenb[98] la_oenb[99] la_oenb[9] user_clock2 user_irq[0] user_irq[1] user_irq[2]
+ vccd1 vccd2 vdda1 vdda2 vssa1 vssa2 vssd1 vssd2 wb_clk_i wb_rst_i wbs_ack_o wbs_adr_i[0]
+ wbs_adr_i[10] wbs_adr_i[11] wbs_adr_i[12] wbs_adr_i[13] wbs_adr_i[14] wbs_adr_i[15]
+ wbs_adr_i[16] wbs_adr_i[17] wbs_adr_i[18] wbs_adr_i[19] wbs_adr_i[1] wbs_adr_i[20]
+ wbs_adr_i[21] wbs_adr_i[22] wbs_adr_i[23] wbs_adr_i[24] wbs_adr_i[25] wbs_adr_i[26]
+ wbs_adr_i[27] wbs_adr_i[28] wbs_adr_i[29] wbs_adr_i[2] wbs_adr_i[30] wbs_adr_i[31]
+ wbs_adr_i[3] wbs_adr_i[4] wbs_adr_i[5] wbs_adr_i[6] wbs_adr_i[7] wbs_adr_i[8] wbs_adr_i[9]
+ wbs_cyc_i wbs_dat_i[0] wbs_dat_i[10] wbs_dat_i[11] wbs_dat_i[12] wbs_dat_i[13] wbs_dat_i[14]
+ wbs_dat_i[15] wbs_dat_i[16] wbs_dat_i[17] wbs_dat_i[18] wbs_dat_i[19] wbs_dat_i[1]
+ wbs_dat_i[20] wbs_dat_i[21] wbs_dat_i[22] wbs_dat_i[23] wbs_dat_i[24] wbs_dat_i[25]
+ wbs_dat_i[26] wbs_dat_i[27] wbs_dat_i[28] wbs_dat_i[29] wbs_dat_i[2] wbs_dat_i[30]
+ wbs_dat_i[31] wbs_dat_i[3] wbs_dat_i[4] wbs_dat_i[5] wbs_dat_i[6] wbs_dat_i[7] wbs_dat_i[8]
+ wbs_dat_i[9] wbs_dat_o[0] wbs_dat_o[10] wbs_dat_o[11] wbs_dat_o[12] wbs_dat_o[13]
+ wbs_dat_o[14] wbs_dat_o[15] wbs_dat_o[16] wbs_dat_o[17] wbs_dat_o[18] wbs_dat_o[19]
+ wbs_dat_o[1] wbs_dat_o[20] wbs_dat_o[21] wbs_dat_o[22] wbs_dat_o[23] wbs_dat_o[24]
+ wbs_dat_o[25] wbs_dat_o[26] wbs_dat_o[27] wbs_dat_o[28] wbs_dat_o[29] wbs_dat_o[2]
+ wbs_dat_o[30] wbs_dat_o[31] wbs_dat_o[3] wbs_dat_o[4] wbs_dat_o[5] wbs_dat_o[6]
+ wbs_dat_o[7] wbs_dat_o[8] wbs_dat_o[9] wbs_sel_i[0] wbs_sel_i[1] wbs_sel_i[2] wbs_sel_i[3]
+ wbs_stb_i wbs_we_i
C0 divider_0/and_0/A divider_0/and_0/B 0.18fF
C1 divider_0/nor_1/B divider_0/tspc_2/Z4 0.02fF
C2 divider_0/prescaler_0/tspc_0/D divider_0/prescaler_0/nand_0/z1 0.24fF
C3 divider_0/prescaler_0/tspc_1/Z2 divider_0/prescaler_0/Out 0.19fF
C4 divider_0/tspc_1/Q divider_0/nor_1/B 0.51fF
C5 divider_0/tspc_1/Z3 divider_0/tspc_1/Z1 0.06fF
C6 divider_0/prescaler_0/tspc_0/D io_analog[10] 0.26fF
C7 divider_0/nor_0/Z1 divider_0/and_0/B 0.78fF
C8 divider_0/nor_1/B divider_0/tspc_0/a_630_n680# 0.01fF
C9 io_clamp_high[2] io_analog[6] 0.53fF
C10 divider_0/tspc_0/Q divider_0/tspc_0/a_630_n680# 0.04fF
C11 divider_0/prescaler_0/tspc_0/Z3 divider_0/prescaler_0/tspc_0/D 0.05fF
C12 divider_0/prescaler_0/tspc_1/Z1 divider_0/prescaler_0/tspc_1/Z4 0.00fF
C13 divider_0/tspc_1/Z3 divider_0/tspc_1/Q 0.05fF
C14 divider_0/prescaler_0/tspc_2/Z1 divider_0/prescaler_0/tspc_2/Z3 0.06fF
C15 io_clamp_low[0] io_clamp_high[0] 0.53fF
C16 divider_0/and_0/OUT divider_0/prescaler_0/tspc_0/Q 0.04fF
C17 divider_0/prescaler_0/tspc_1/Z3 io_analog[10] 0.45fF
C18 divider_0/tspc_2/a_630_n680# divider_0/nor_0/B 0.35fF
C19 divider_0/prescaler_0/tspc_0/Z1 divider_0/prescaler_0/tspc_0/Z3 0.06fF
C20 divider_0/prescaler_0/m1_2700_2190# divider_0/and_0/OUT 0.14fF
C21 divider_0/prescaler_0/Out divider_0/tspc_0/Z2 0.11fF
C22 divbuf_0/a_492_n240# divbuf_0/OUT5 0.01fF
C23 io_clamp_low[1] io_analog[5] 0.53fF
C24 divider_0/nor_1/A divider_0/prescaler_0/Out 0.15fF
C25 divider_0/prescaler_0/tspc_2/Z3 io_analog[10] 0.64fF
C26 divider_0/prescaler_0/tspc_0/Z4 divider_0/prescaler_0/tspc_0/D 0.11fF
C27 divider_0/prescaler_0/tspc_1/Z3 divider_0/prescaler_0/tspc_1/Z4 0.65fF
C28 divider_0/prescaler_0/tspc_0/Z3 io_analog[10] 0.45fF
C29 divider_0/prescaler_0/tspc_2/Z1 divider_0/prescaler_0/tspc_2/Z4 0.00fF
C30 divider_0/prescaler_0/tspc_1/Z3 divider_0/prescaler_0/tspc_1/Q 0.21fF
C31 divider_0/and_0/B divider_0/and_0/Z1 0.07fF
C32 divider_0/prescaler_0/tspc_1/Z4 io_analog[10] 0.12fF
C33 divider_0/tspc_1/a_630_n680# divider_0/tspc_1/Z4 0.12fF
C34 divider_0/tspc_2/a_630_n680# divider_0/tspc_2/Z2 0.01fF
C35 divider_0/prescaler_0/tspc_1/Q io_analog[10] 0.60fF
C36 divider_0/tspc_1/a_630_n680# divider_0/tspc_1/Z2 0.01fF
C37 divider_0/prescaler_0/tspc_0/Z1 divider_0/prescaler_0/tspc_0/Z4 0.00fF
C38 divider_0/prescaler_0/m1_2700_2190# divider_0/prescaler_0/tspc_0/D 0.16fF
C39 divider_0/and_0/out1 divider_0/and_0/A 0.01fF
C40 divbuf_0/OUT2 divbuf_0/OUT3 1.37fF
C41 divider_0/prescaler_0/tspc_2/Z3 divider_0/prescaler_0/tspc_1/Q 0.13fF
C42 divider_0/nor_1/A divider_0/tspc_0/Z2 0.23fF
C43 divider_0/prescaler_0/tspc_2/Z4 io_analog[10] 0.12fF
C44 divider_0/tspc_0/Z1 divider_0/tspc_0/Z2 1.07fF
C45 divider_0/prescaler_0/tspc_0/Z4 io_analog[10] 0.12fF
C46 divider_0/prescaler_0/tspc_2/Z3 divider_0/prescaler_0/tspc_2/Z4 0.65fF
C47 io_analog[9] divbuf_0/IN 1.18fF
C48 divider_0/tspc_0/Z1 divider_0/nor_1/A 0.03fF
C49 divider_0/prescaler_0/m1_2700_2190# divider_0/prescaler_0/tspc_1/Z3 0.33fF
C50 divider_0/and_0/OUT divider_0/and_0/Z1 0.04fF
C51 divider_0/nor_0/B divider_0/tspc_2/Z2 0.40fF
C52 divider_0/tspc_2/a_630_n680# divbuf_0/IN 0.04fF
C53 divider_0/prescaler_0/tspc_0/Q io_analog[10] 0.05fF
C54 divider_0/tspc_0/Z4 divider_0/prescaler_0/Out 0.12fF
C55 divider_0/tspc_1/a_630_n680# divider_0/tspc_1/Q 0.04fF
C56 divider_0/prescaler_0/tspc_0/Z3 divider_0/prescaler_0/tspc_0/Z4 0.65fF
C57 divider_0/prescaler_0/m1_2700_2190# divider_0/prescaler_0/nand_0/z1 0.07fF
C58 divbuf_0/OUT2 divbuf_0/OUT5 0.02fF
C59 divbuf_0/OUT3 divbuf_0/OUT4 5.16fF
C60 io_clamp_high[0] io_analog[4] 0.53fF
C61 divider_0/nor_1/B divider_0/nor_0/B 0.47fF
C62 divider_0/prescaler_0/tspc_2/Z4 divider_0/prescaler_0/tspc_1/Q 0.21fF
C63 divider_0/prescaler_0/tspc_2/Z1 divider_0/prescaler_0/tspc_2/D 0.03fF
C64 divider_0/prescaler_0/m1_2700_2190# io_analog[10] 0.01fF
C65 divider_0/prescaler_0/tspc_0/Z3 divider_0/prescaler_0/tspc_0/Q 0.05fF
C66 divider_0/nor_1/A divider_0/tspc_1/Z4 0.02fF
C67 divider_0/tspc_0/a_630_n680# divider_0/prescaler_0/Out 0.01fF
C68 divider_0/prescaler_0/tspc_1/Q divider_0/prescaler_0/tspc_0/Q 0.19fF
C69 divider_0/prescaler_0/tspc_2/a_740_n680# io_analog[10] 0.14fF
C70 divider_0/tspc_1/Z2 divider_0/nor_1/A 0.15fF
C71 divider_0/nor_0/Z1 divider_0/nor_0/B 0.06fF
C72 divider_0/prescaler_0/m1_2700_2190# divider_0/prescaler_0/tspc_1/Z4 0.08fF
C73 divider_0/prescaler_0/tspc_1/a_630_n680# divider_0/prescaler_0/tspc_1/Z3 0.05fF
C74 divider_0/nor_0/B divbuf_0/IN 0.42fF
C75 divider_0/tspc_2/Z1 divider_0/tspc_2/Z3 0.06fF
C76 divider_0/prescaler_0/tspc_2/D io_analog[10] 0.29fF
C77 divider_0/nor_1/Z1 divider_0/and_0/B 0.18fF
C78 divider_0/tspc_0/Z4 divider_0/tspc_0/Z2 0.36fF
C79 divider_0/tspc_0/Q divider_0/tspc_0/Z3 0.05fF
C80 divider_0/prescaler_0/tspc_0/a_740_n680# io_analog[10] 0.01fF
C81 divider_0/prescaler_0/tspc_1/Z2 divider_0/and_0/OUT 0.06fF
C82 divider_0/prescaler_0/tspc_2/a_740_n680# divider_0/prescaler_0/tspc_2/Z3 0.33fF
C83 divider_0/prescaler_0/m1_2700_2190# divider_0/prescaler_0/tspc_1/Q 0.38fF
C84 divider_0/and_0/out1 divider_0/and_0/Z1 0.36fF
C85 divbuf_0/OUT4 divbuf_0/OUT5 20.26fF
C86 divbuf_0/OUT3 io_analog[9] 0.26fF
C87 divider_0/nor_1/B divider_0/tspc_2/Z2 0.20fF
C88 divider_0/prescaler_0/tspc_2/Z3 divider_0/prescaler_0/tspc_2/D 0.05fF
C89 divider_0/prescaler_0/tspc_1/a_630_n680# io_analog[10] 0.01fF
C90 divider_0/tspc_0/Z4 divider_0/nor_1/A 0.21fF
C91 divider_0/nor_1/A divider_0/and_0/B 0.08fF
C92 divider_0/tspc_0/Z4 divider_0/tspc_0/Z1 0.00fF
C93 divider_0/prescaler_0/tspc_0/a_740_n680# divider_0/prescaler_0/tspc_0/Z3 0.33fF
C94 divider_0/prescaler_0/tspc_1/Z4 divider_0/prescaler_0/tspc_2/a_740_n680# 0.01fF
C95 divider_0/prescaler_0/tspc_2/a_740_n680# divider_0/prescaler_0/tspc_1/Q 0.15fF
C96 divider_0/prescaler_0/tspc_2/Z2 divider_0/and_0/OUT 0.06fF
C97 divider_0/tspc_0/Q divider_0/nor_1/B 0.22fF
C98 divider_0/tspc_0/a_630_n680# divider_0/tspc_0/Z2 0.01fF
C99 divider_0/prescaler_0/tspc_1/Q divider_0/prescaler_0/tspc_2/D 0.32fF
C100 divider_0/prescaler_0/tspc_2/a_630_n680# io_analog[10] 0.01fF
C101 divider_0/nor_1/B divider_0/and_0/A 0.26fF
C102 divider_0/tspc_1/Z2 divider_0/tspc_1/Z4 0.36fF
C103 divider_0/prescaler_0/tspc_0/Z2 divider_0/and_0/OUT 0.05fF
C104 divider_0/prescaler_0/tspc_1/a_630_n680# divider_0/prescaler_0/tspc_1/Z4 0.12fF
C105 divider_0/prescaler_0/tspc_1/Z1 divider_0/prescaler_0/tspc_1/Z2 1.07fF
C106 divider_0/tspc_2/Z1 divider_0/tspc_2/Z4 0.00fF
C107 divider_0/tspc_1/Q divider_0/tspc_2/Z1 0.01fF
C108 divider_0/prescaler_0/tspc_0/a_630_n680# io_analog[10] 0.01fF
C109 divider_0/tspc_1/Z1 divider_0/tspc_1/Z4 0.00fF
C110 divider_0/tspc_0/a_630_n680# divider_0/nor_1/A 0.35fF
C111 divider_0/prescaler_0/tspc_2/a_740_n680# divider_0/prescaler_0/tspc_2/Z4 0.08fF
C112 divider_0/prescaler_0/tspc_2/a_630_n680# divider_0/prescaler_0/tspc_2/Z3 0.05fF
C113 divider_0/prescaler_0/tspc_1/a_630_n680# divider_0/prescaler_0/tspc_1/Q 0.04fF
C114 divider_0/nor_0/Z1 divider_0/nor_1/B 0.18fF
C115 divbuf_0/OUT5 io_analog[9] 43.38fF
C116 divider_0/prescaler_0/tspc_2/Z4 divider_0/prescaler_0/tspc_2/D 0.11fF
C117 divider_0/prescaler_0/tspc_1/Z1 divider_0/prescaler_0/Out 0.08fF
C118 divider_0/tspc_1/Z3 divider_0/nor_1/B 0.38fF
C119 divider_0/tspc_1/Z2 divider_0/tspc_1/Z1 1.07fF
C120 divider_0/tspc_0/Q divider_0/tspc_1/Z3 0.45fF
C121 divider_0/prescaler_0/tspc_0/a_740_n680# divider_0/prescaler_0/tspc_0/Z4 0.08fF
C122 divider_0/prescaler_0/tspc_0/a_630_n680# divider_0/prescaler_0/tspc_0/Z3 0.05fF
C123 divbuf_0/a_492_n240# divbuf_0/OUT2 0.42fF
C124 io_clamp_low[2] io_analog[6] 0.53fF
C125 divider_0/prescaler_0/tspc_1/Q divider_0/prescaler_0/nand_1/z1 0.22fF
C126 divider_0/prescaler_0/tspc_0/Q divider_0/prescaler_0/tspc_2/D 0.04fF
C127 divider_0/prescaler_0/tspc_0/a_740_n680# divider_0/prescaler_0/tspc_0/Q 0.20fF
C128 divider_0/prescaler_0/tspc_0/Z2 divider_0/prescaler_0/tspc_0/D 0.09fF
C129 divider_0/prescaler_0/tspc_1/Z2 divider_0/prescaler_0/tspc_1/Z3 0.16fF
C130 divider_0/tspc_2/Z3 divider_0/tspc_2/Z4 0.65fF
C131 divider_0/tspc_1/Q divider_0/tspc_2/Z3 0.45fF
C132 divider_0/prescaler_0/tspc_2/a_630_n680# divider_0/prescaler_0/tspc_2/Z4 0.12fF
C133 divider_0/prescaler_0/tspc_2/Z1 divider_0/prescaler_0/tspc_2/Z2 1.07fF
C134 divider_0/prescaler_0/tspc_1/Z3 divider_0/prescaler_0/Out 0.11fF
C135 divider_0/prescaler_0/tspc_1/Z2 io_analog[10] 0.11fF
C136 divider_0/prescaler_0/m1_2700_2190# divider_0/prescaler_0/tspc_1/a_630_n680# 0.19fF
C137 divider_0/tspc_1/a_630_n680# divider_0/nor_0/B 0.00fF
C138 divider_0/prescaler_0/tspc_0/a_630_n680# divider_0/prescaler_0/tspc_0/Z4 0.12fF
C139 divider_0/prescaler_0/tspc_0/Z1 divider_0/prescaler_0/tspc_0/Z2 1.07fF
C140 divider_0/prescaler_0/Out io_analog[10] 0.51fF
C141 divider_0/tspc_0/Z4 divider_0/tspc_0/a_630_n680# 0.12fF
C142 divider_0/prescaler_0/tspc_0/Q divider_0/prescaler_0/nand_1/z1 0.01fF
C143 divider_0/prescaler_0/tspc_2/Z2 io_analog[10] 0.11fF
C144 divider_0/prescaler_0/tspc_2/Z3 divider_0/prescaler_0/Out 0.05fF
C145 divider_0/prescaler_0/tspc_0/a_630_n680# divider_0/prescaler_0/tspc_0/Q 0.04fF
C146 divider_0/prescaler_0/tspc_1/Z2 divider_0/prescaler_0/tspc_1/Z4 0.36fF
C147 divider_0/tspc_1/Q divider_0/tspc_2/Z4 0.15fF
C148 divider_0/prescaler_0/tspc_0/Z2 io_analog[10] 0.11fF
C149 divider_0/prescaler_0/tspc_1/Z2 divider_0/prescaler_0/tspc_1/Q 0.06fF
C150 divider_0/prescaler_0/tspc_2/Z2 divider_0/prescaler_0/tspc_2/Z3 0.16fF
C151 divider_0/prescaler_0/tspc_1/Z4 divider_0/prescaler_0/Out 0.28fF
C152 divider_0/and_0/OUT divider_0/and_0/B 0.01fF
C153 divider_0/prescaler_0/tspc_1/Q divider_0/prescaler_0/Out 0.91fF
C154 divider_0/prescaler_0/tspc_0/Z2 divider_0/prescaler_0/tspc_0/Z3 0.16fF
C155 divider_0/prescaler_0/tspc_2/a_740_n680# divider_0/prescaler_0/tspc_2/a_630_n680# 0.19fF
C156 divider_0/prescaler_0/Out divider_0/tspc_0/Z3 0.45fF
C157 divbuf_0/a_492_n240# io_analog[9] 0.00fF
C158 io_clamp_high[1] io_analog[5] 0.53fF
C159 divider_0/prescaler_0/tspc_2/Z2 divider_0/prescaler_0/tspc_1/Q 0.06fF
C160 divider_0/tspc_1/a_630_n680# divider_0/nor_1/B 0.35fF
C161 divider_0/prescaler_0/tspc_2/D divider_0/prescaler_0/nand_1/z1 0.21fF
C162 divider_0/tspc_0/Q divider_0/tspc_1/a_630_n680# 0.01fF
C163 divider_0/prescaler_0/tspc_0/a_740_n680# divider_0/prescaler_0/tspc_0/a_630_n680# 0.19fF
C164 divider_0/prescaler_0/tspc_2/Z2 divider_0/prescaler_0/tspc_2/Z4 0.36fF
C165 divbuf_0/OUT5 divbuf_0/IN 0.00fF
C166 divider_0/nor_0/B divider_0/tspc_2/Z1 0.03fF
C167 divider_0/tspc_2/a_630_n680# divider_0/tspc_2/Z3 0.05fF
C168 divider_0/tspc_1/a_630_n680# divider_0/tspc_1/Z3 0.05fF
C169 divider_0/prescaler_0/tspc_0/Z2 divider_0/prescaler_0/tspc_0/Z4 0.36fF
C170 divider_0/and_0/out1 divider_0/and_0/B 0.18fF
C171 divider_0/tspc_0/Z2 divider_0/tspc_0/Z3 0.16fF
C172 io_clamp_low[2] io_clamp_high[2] 0.53fF
C173 io_clamp_low[0] io_analog[4] 0.53fF
C174 divider_0/nor_1/A divider_0/prescaler_0/tspc_1/Q 0.03fF
C175 divider_0/prescaler_0/m1_2700_2190# divider_0/prescaler_0/Out 0.11fF
C176 divider_0/nor_1/A divider_0/tspc_0/Z3 0.38fF
C177 divider_0/prescaler_0/tspc_1/Z2 divider_0/prescaler_0/tspc_2/a_740_n680# 0.01fF
C178 divider_0/tspc_0/Z1 divider_0/tspc_0/Z3 0.06fF
C179 divider_0/nor_1/Z1 divider_0/nor_1/B 0.06fF
C180 divider_0/prescaler_0/tspc_2/a_740_n680# divider_0/prescaler_0/Out 0.21fF
C181 divider_0/prescaler_0/tspc_1/a_630_n680# divider_0/prescaler_0/tspc_1/Z2 0.01fF
C182 divider_0/nor_0/B divider_0/tspc_2/Z3 0.38fF
C183 divider_0/tspc_2/a_630_n680# divider_0/tspc_2/Z4 0.12fF
C184 divider_0/tspc_2/Z1 divider_0/tspc_2/Z2 1.07fF
C185 divider_0/tspc_1/Q divider_0/tspc_2/a_630_n680# 0.01fF
C186 divider_0/nor_1/Z1 divider_0/and_0/A 0.80fF
C187 divider_0/nor_1/B divider_0/nor_1/A 1.21fF
C188 divbuf_0/OUT2 io_analog[9] 0.06fF
C189 divbuf_0/OUT3 divbuf_0/OUT5 0.01fF
C190 divider_0/and_0/OUT divider_0/prescaler_0/tspc_0/D 0.03fF
C191 divider_0/prescaler_0/tspc_2/Z2 divider_0/prescaler_0/tspc_2/D 0.09fF
C192 divider_0/tspc_0/Q divider_0/nor_1/A 0.55fF
C193 divider_0/and_0/OUT divider_0/and_0/out1 0.31fF
C194 divider_0/nor_1/A divider_0/and_0/A 0.01fF
C195 divider_0/prescaler_0/m1_2700_2190# divider_0/nor_1/A 0.01fF
C196 divider_0/nor_0/B divider_0/and_0/B 0.29fF
C197 divider_0/prescaler_0/tspc_2/a_630_n680# divider_0/prescaler_0/Out 0.04fF
C198 divider_0/nor_0/B divider_0/tspc_2/Z4 0.22fF
C199 divider_0/tspc_2/Z2 divider_0/tspc_2/Z3 0.16fF
C200 divider_0/tspc_1/Q divider_0/nor_0/B 0.22fF
C201 divider_0/tspc_0/Z4 divider_0/tspc_0/Z3 0.65fF
C202 divider_0/nor_1/B divider_0/tspc_1/Z4 0.21fF
C203 divider_0/prescaler_0/tspc_2/a_630_n680# divider_0/prescaler_0/tspc_2/Z2 0.01fF
C204 io_clamp_low[1] io_clamp_high[1] 0.53fF
C205 divbuf_0/OUT4 io_analog[9] 1.11fF
C206 divider_0/and_0/OUT divider_0/prescaler_0/nand_0/z1 0.01fF
C207 divider_0/tspc_0/Q divider_0/tspc_1/Z4 0.15fF
C208 divider_0/tspc_1/Z2 divider_0/nor_1/B 0.30fF
C209 divbuf_0/a_492_n240# divbuf_0/IN 0.13fF
C210 divider_0/and_0/OUT io_analog[10] 0.04fF
C211 divider_0/tspc_0/Q divider_0/tspc_1/Z2 0.14fF
C212 divider_0/prescaler_0/tspc_0/a_630_n680# divider_0/prescaler_0/tspc_0/Z2 0.01fF
C213 divider_0/nor_1/B divider_0/tspc_1/Z1 0.03fF
C214 divider_0/tspc_0/Q divider_0/tspc_1/Z1 0.01fF
C215 divider_0/nor_1/B divider_0/and_0/B 0.31fF
C216 divider_0/tspc_0/a_630_n680# divider_0/tspc_0/Z3 0.05fF
C217 divider_0/tspc_1/Z3 divider_0/tspc_1/Z4 0.65fF
C218 divider_0/prescaler_0/tspc_0/Z1 divider_0/prescaler_0/tspc_0/D 0.15fF
C219 divider_0/prescaler_0/tspc_1/Z1 divider_0/prescaler_0/tspc_1/Z3 0.06fF
C220 divider_0/tspc_2/Z2 divider_0/tspc_2/Z4 0.36fF
C221 divider_0/tspc_2/Z3 divbuf_0/IN 0.05fF
C222 divider_0/tspc_1/Q divider_0/tspc_2/Z2 0.14fF
C223 divider_0/tspc_1/Z2 divider_0/tspc_1/Z3 0.16fF
Xdivbuf_0 gpio_analog[7] divbuf_0/IN io_analog[9] divbuf_0/OUT2 divbuf_0/OUT3 divbuf_0/OUT4
+ divbuf_0/OUT5 gpio_analog[8] divbuf
Xdivider_0 gpio_analog[8] gpio_analog[7] divbuf_0/IN io_analog[10] gpio_analog[8]
+ divider
C224 io_analog[4] gpio_analog[8] 25.05fF
C225 io_analog[5] gpio_analog[8] 25.05fF
C226 io_analog[6] gpio_analog[8] 25.05fF
C227 io_in_3v3[0] gpio_analog[8] 0.61fF
C228 io_oeb[26] gpio_analog[8] 0.61fF
C229 io_in[0] gpio_analog[8] 0.61fF
C230 io_out[26] gpio_analog[8] 0.61fF
C231 io_out[0] gpio_analog[8] 0.61fF
C232 io_in[26] gpio_analog[8] 0.61fF
C233 io_oeb[0] gpio_analog[8] 0.61fF
C234 io_in_3v3[26] gpio_analog[8] 0.61fF
C235 io_in_3v3[1] gpio_analog[8] 0.61fF
C236 io_oeb[25] gpio_analog[8] 0.61fF
C237 io_in[1] gpio_analog[8] 0.61fF
C238 io_out[25] gpio_analog[8] 0.61fF
C239 io_out[1] gpio_analog[8] 0.61fF
C240 io_in[25] gpio_analog[8] 0.61fF
C241 io_oeb[1] gpio_analog[8] 0.61fF
C242 io_in_3v3[25] gpio_analog[8] 0.61fF
C243 io_in_3v3[2] gpio_analog[8] 0.61fF
C244 io_oeb[24] gpio_analog[8] 0.61fF
C245 io_in[2] gpio_analog[8] 0.61fF
C246 io_out[24] gpio_analog[8] 0.61fF
C247 io_out[2] gpio_analog[8] 0.61fF
C248 io_in[24] gpio_analog[8] 0.61fF
C249 io_oeb[2] gpio_analog[8] 0.61fF
C250 io_in_3v3[24] gpio_analog[8] 0.61fF
C251 io_in_3v3[3] gpio_analog[8] 0.61fF
C252 gpio_noesd[17] gpio_analog[8] 0.61fF
C253 io_in[3] gpio_analog[8] 0.61fF
C254 gpio_analog[17] gpio_analog[8] 0.61fF
C255 io_out[3] gpio_analog[8] 0.61fF
C256 io_oeb[3] gpio_analog[8] 0.61fF
C257 io_in_3v3[4] gpio_analog[8] 0.61fF
C258 io_in[4] gpio_analog[8] 0.61fF
C259 io_out[4] gpio_analog[8] 0.61fF
C260 io_oeb[4] gpio_analog[8] 0.61fF
C261 io_oeb[23] gpio_analog[8] 0.61fF
C262 io_out[23] gpio_analog[8] 0.61fF
C263 io_in[23] gpio_analog[8] 0.61fF
C264 io_in_3v3[23] gpio_analog[8] 0.61fF
C265 gpio_noesd[16] gpio_analog[8] 0.61fF
C266 gpio_analog[16] gpio_analog[8] 0.61fF
C267 io_in_3v3[5] gpio_analog[8] 0.61fF
C268 io_in[5] gpio_analog[8] 0.61fF
C269 io_out[5] gpio_analog[8] 0.61fF
C270 io_oeb[5] gpio_analog[8] 0.61fF
C271 io_oeb[22] gpio_analog[8] 0.61fF
C272 io_out[22] gpio_analog[8] 0.61fF
C273 io_in[22] gpio_analog[8] 0.61fF
C274 io_in_3v3[22] gpio_analog[8] 0.61fF
C275 gpio_noesd[15] gpio_analog[8] 0.61fF
C276 gpio_analog[15] gpio_analog[8] 0.61fF
C277 io_in_3v3[6] gpio_analog[8] 0.61fF
C278 io_in[6] gpio_analog[8] 0.61fF
C279 io_out[6] gpio_analog[8] 0.61fF
C280 io_oeb[6] gpio_analog[8] 0.61fF
C281 io_oeb[21] gpio_analog[8] 0.61fF
C282 io_out[21] gpio_analog[8] 0.61fF
C283 io_in[21] gpio_analog[8] 0.61fF
C284 io_in_3v3[21] gpio_analog[8] 0.61fF
C285 gpio_noesd[14] gpio_analog[8] 0.61fF
C286 gpio_analog[14] gpio_analog[8] 0.61fF
C287 vssa1 gpio_analog[8] 26.08fF
C288 vssd2 gpio_analog[8] 13.04fF
C289 vssd1 gpio_analog[8] 13.04fF
C290 vdda2 gpio_analog[8] 13.04fF
C291 vdda1 gpio_analog[8] 26.08fF
C292 io_oeb[20] gpio_analog[8] 0.61fF
C293 io_out[20] gpio_analog[8] 0.61fF
C294 io_in[20] gpio_analog[8] 0.61fF
C295 io_in_3v3[20] gpio_analog[8] 0.61fF
C296 gpio_noesd[13] gpio_analog[8] 0.61fF
C297 gpio_analog[13] gpio_analog[8] 0.61fF
C298 gpio_analog[0] gpio_analog[8] 0.61fF
C299 gpio_noesd[0] gpio_analog[8] 0.61fF
C300 io_in_3v3[7] gpio_analog[8] 0.61fF
C301 io_in[7] gpio_analog[8] 0.61fF
C302 io_out[7] gpio_analog[8] 0.61fF
C303 io_oeb[7] gpio_analog[8] 0.61fF
C304 io_oeb[19] gpio_analog[8] 0.61fF
C305 io_out[19] gpio_analog[8] 0.61fF
C306 io_in[19] gpio_analog[8] 0.61fF
C307 io_in_3v3[19] gpio_analog[8] 0.61fF
C308 gpio_noesd[12] gpio_analog[8] 0.61fF
C309 gpio_analog[12] gpio_analog[8] 0.61fF
C310 gpio_analog[1] gpio_analog[8] 0.61fF
C311 gpio_noesd[1] gpio_analog[8] 0.61fF
C312 io_in_3v3[8] gpio_analog[8] 0.61fF
C313 io_in[8] gpio_analog[8] 0.61fF
C314 io_out[8] gpio_analog[8] 0.61fF
C315 io_oeb[8] gpio_analog[8] 0.61fF
C316 io_oeb[18] gpio_analog[8] 0.61fF
C317 io_out[18] gpio_analog[8] 0.61fF
C318 io_in[18] gpio_analog[8] 0.61fF
C319 io_in_3v3[18] gpio_analog[8] 0.61fF
C320 gpio_noesd[11] gpio_analog[8] 0.61fF
C321 gpio_analog[11] gpio_analog[8] 0.61fF
C322 gpio_analog[2] gpio_analog[8] 0.61fF
C323 gpio_noesd[2] gpio_analog[8] 0.61fF
C324 io_in_3v3[9] gpio_analog[8] 0.61fF
C325 io_in[9] gpio_analog[8] 0.61fF
C326 io_out[9] gpio_analog[8] 0.61fF
C327 io_oeb[9] gpio_analog[8] 0.61fF
C328 io_oeb[17] gpio_analog[8] 0.61fF
C329 io_out[17] gpio_analog[8] 0.61fF
C330 io_in[17] gpio_analog[8] 0.61fF
C331 io_in_3v3[17] gpio_analog[8] 0.61fF
C332 gpio_noesd[10] gpio_analog[8] 0.61fF
C333 gpio_analog[10] gpio_analog[8] 0.61fF
C334 gpio_analog[3] gpio_analog[8] 0.61fF
C335 gpio_noesd[3] gpio_analog[8] 0.61fF
C336 io_in_3v3[10] gpio_analog[8] 0.61fF
C337 io_in[10] gpio_analog[8] 0.61fF
C338 io_out[10] gpio_analog[8] 0.61fF
C339 io_oeb[10] gpio_analog[8] 0.61fF
C340 io_oeb[16] gpio_analog[8] 0.61fF
C341 io_out[16] gpio_analog[8] 0.61fF
C342 io_in[16] gpio_analog[8] 0.61fF
C343 io_in_3v3[16] gpio_analog[8] 0.61fF
C344 gpio_noesd[9] gpio_analog[8] 0.61fF
C345 gpio_analog[9] gpio_analog[8] 0.61fF
C346 gpio_analog[4] gpio_analog[8] 0.61fF
C347 gpio_noesd[4] gpio_analog[8] 0.61fF
C348 io_in_3v3[11] gpio_analog[8] 0.61fF
C349 io_in[11] gpio_analog[8] 0.61fF
C350 io_out[11] gpio_analog[8] 0.61fF
C351 io_oeb[11] gpio_analog[8] 0.61fF
C352 io_oeb[15] gpio_analog[8] 0.61fF
C353 io_out[15] gpio_analog[8] 0.61fF
C354 io_in[15] gpio_analog[8] 0.61fF
C355 io_in_3v3[15] gpio_analog[8] 0.61fF
C356 gpio_noesd[8] gpio_analog[8] 0.61fF
C357 gpio_analog[5] gpio_analog[8] 0.61fF
C358 gpio_noesd[5] gpio_analog[8] 0.61fF
C359 io_in_3v3[12] gpio_analog[8] 0.61fF
C360 io_in[12] gpio_analog[8] 0.61fF
C361 io_out[12] gpio_analog[8] 0.61fF
C362 io_oeb[12] gpio_analog[8] 0.61fF
C363 gpio_analog[6] gpio_analog[8] 0.61fF
C364 gpio_noesd[6] gpio_analog[8] 0.61fF
C365 io_in_3v3[13] gpio_analog[8] 0.61fF
C366 io_in[13] gpio_analog[8] 0.61fF
C367 io_out[13] gpio_analog[8] 0.61fF
C368 io_oeb[13] gpio_analog[8] 0.61fF
C369 vccd1 gpio_analog[8] 13.04fF
C370 io_oeb[14] gpio_analog[8] 0.61fF
C371 io_out[14] gpio_analog[8] 0.61fF
C372 io_in[14] gpio_analog[8] 0.61fF
C373 io_in_3v3[14] gpio_analog[8] 0.61fF
C374 gpio_noesd[7] gpio_analog[8] 0.61fF
C375 vssa2 gpio_analog[8] 13.04fF
C376 vccd2 gpio_analog[8] 13.04fF
C377 io_analog[0] gpio_analog[8] 6.83fF
C378 io_analog[1] gpio_analog[8] 6.83fF
C379 io_analog[2] gpio_analog[8] 6.83fF
C380 io_analog[3] gpio_analog[8] 6.83fF
C381 io_clamp_high[0] gpio_analog[8] 3.58fF
C382 io_clamp_low[0] gpio_analog[8] 3.58fF
C383 io_clamp_high[1] gpio_analog[8] 3.58fF
C384 io_clamp_low[1] gpio_analog[8] 3.58fF
C385 io_clamp_high[2] gpio_analog[8] 3.58fF
C386 io_clamp_low[2] gpio_analog[8] 3.58fF
C387 io_analog[7] gpio_analog[8] 6.83fF
C388 io_analog[8] gpio_analog[8] 6.83fF
C389 user_irq[2] gpio_analog[8] 0.63fF
C390 user_irq[1] gpio_analog[8] 0.63fF
C391 user_irq[0] gpio_analog[8] 0.63fF
C392 user_clock2 gpio_analog[8] 0.63fF
C393 la_oenb[127] gpio_analog[8] 0.63fF
C394 la_data_out[127] gpio_analog[8] 0.63fF
C395 la_data_in[127] gpio_analog[8] 0.63fF
C396 la_oenb[126] gpio_analog[8] 0.63fF