* SPICE3 file created from user_analog_project_wrapper.ext - technology: sky130A

.subckt user_analog_project_wrapper gpio_analog[0] gpio_analog[10] gpio_analog[11]
+ gpio_analog[12] gpio_analog[13] gpio_analog[14] gpio_analog[15] gpio_analog[16]
+ gpio_analog[17] gpio_analog[1] gpio_analog[2] gpio_analog[3] gpio_analog[4] gpio_analog[5]
+ gpio_analog[6] gpio_analog[7] gpio_analog[8] gpio_analog[9] gpio_noesd[0] gpio_noesd[10]
+ gpio_noesd[11] gpio_noesd[12] gpio_noesd[13] gpio_noesd[14] gpio_noesd[15] gpio_noesd[16]
+ gpio_noesd[17] gpio_noesd[1] gpio_noesd[2] gpio_noesd[3] gpio_noesd[4] gpio_noesd[5]
+ gpio_noesd[6] gpio_noesd[7] gpio_noesd[8] gpio_noesd[9] io_analog[0] io_analog[10]
+ io_analog[1] io_analog[2] io_analog[3] io_analog[4] io_analog[5] io_analog[6] io_analog[7]
+ io_analog[8] io_analog[9] io_clamp_high[0] io_clamp_high[1] io_clamp_high[2] io_clamp_low[0]
+ io_clamp_low[1] io_clamp_low[2] io_in[0] io_in[10] io_in[11] io_in[12] io_in[13]
+ io_in[14] io_in[15] io_in[16] io_in[17] io_in[18] io_in[19] io_in[1] io_in[20] io_in[21]
+ io_in[22] io_in[23] io_in[24] io_in[25] io_in[26] io_in[2] io_in[3] io_in[4] io_in[5]
+ io_in[6] io_in[7] io_in[8] io_in[9] io_in_3v3[0] io_in_3v3[10] io_in_3v3[11] io_in_3v3[12]
+ io_in_3v3[13] io_in_3v3[14] io_in_3v3[15] io_in_3v3[16] io_in_3v3[17] io_in_3v3[18]
+ io_in_3v3[19] io_in_3v3[1] io_in_3v3[20] io_in_3v3[21] io_in_3v3[22] io_in_3v3[23]
+ io_in_3v3[24] io_in_3v3[25] io_in_3v3[26] io_in_3v3[2] io_in_3v3[3] io_in_3v3[4]
+ io_in_3v3[5] io_in_3v3[6] io_in_3v3[7] io_in_3v3[8] io_in_3v3[9] io_oeb[0] io_oeb[10]
+ io_oeb[11] io_oeb[12] io_oeb[13] io_oeb[14] io_oeb[15] io_oeb[16] io_oeb[17] io_oeb[18]
+ io_oeb[19] io_oeb[1] io_oeb[20] io_oeb[21] io_oeb[22] io_oeb[23] io_oeb[24] io_oeb[25]
+ io_oeb[26] io_oeb[2] io_oeb[3] io_oeb[4] io_oeb[5] io_oeb[6] io_oeb[7] io_oeb[8]
+ io_oeb[9] io_out[0] io_out[10] io_out[11] io_out[12] io_out[13] io_out[14] io_out[15]
+ io_out[16] io_out[17] io_out[18] io_out[19] io_out[1] io_out[20] io_out[21] io_out[22]
+ io_out[23] io_out[24] io_out[25] io_out[26] io_out[2] io_out[3] io_out[4] io_out[5]
+ io_out[6] io_out[7] io_out[8] io_out[9] la_data_in[0] la_data_in[100] la_data_in[101]
+ la_data_in[102] la_data_in[103] la_data_in[104] la_data_in[105] la_data_in[106]
+ la_data_in[107] la_data_in[108] la_data_in[109] la_data_in[10] la_data_in[110] la_data_in[111]
+ la_data_in[112] la_data_in[113] la_data_in[114] la_data_in[115] la_data_in[116]
+ la_data_in[117] la_data_in[118] la_data_in[119] la_data_in[11] la_data_in[120] la_data_in[121]
+ la_data_in[122] la_data_in[123] la_data_in[124] la_data_in[125] la_data_in[126]
+ la_data_in[127] la_data_in[12] la_data_in[13] la_data_in[14] la_data_in[15] la_data_in[16]
+ la_data_in[17] la_data_in[18] la_data_in[19] la_data_in[1] la_data_in[20] la_data_in[21]
+ la_data_in[22] la_data_in[23] la_data_in[24] la_data_in[25] la_data_in[26] la_data_in[27]
+ la_data_in[28] la_data_in[29] la_data_in[2] la_data_in[30] la_data_in[31] la_data_in[32]
+ la_data_in[33] la_data_in[34] la_data_in[35] la_data_in[36] la_data_in[37] la_data_in[38]
+ la_data_in[39] la_data_in[3] la_data_in[40] la_data_in[41] la_data_in[42] la_data_in[43]
+ la_data_in[44] la_data_in[45] la_data_in[46] la_data_in[47] la_data_in[48] la_data_in[49]
+ la_data_in[4] la_data_in[50] la_data_in[51] la_data_in[52] la_data_in[53] la_data_in[54]
+ la_data_in[55] la_data_in[56] la_data_in[57] la_data_in[58] la_data_in[59] la_data_in[5]
+ la_data_in[60] la_data_in[61] la_data_in[62] la_data_in[63] la_data_in[64] la_data_in[65]
+ la_data_in[66] la_data_in[67] la_data_in[68] la_data_in[69] la_data_in[6] la_data_in[70]
+ la_data_in[71] la_data_in[72] la_data_in[73] la_data_in[74] la_data_in[75] la_data_in[76]
+ la_data_in[77] la_data_in[78] la_data_in[79] la_data_in[7] la_data_in[80] la_data_in[81]
+ la_data_in[82] la_data_in[83] la_data_in[84] la_data_in[85] la_data_in[86] la_data_in[87]
+ la_data_in[88] la_data_in[89] la_data_in[8] la_data_in[90] la_data_in[91] la_data_in[92]
+ la_data_in[93] la_data_in[94] la_data_in[95] la_data_in[96] la_data_in[97] la_data_in[98]
+ la_data_in[99] la_data_in[9] la_data_out[0] la_data_out[100] la_data_out[101] la_data_out[102]
+ la_data_out[103] la_data_out[104] la_data_out[105] la_data_out[106] la_data_out[107]
+ la_data_out[108] la_data_out[109] la_data_out[10] la_data_out[110] la_data_out[111]
+ la_data_out[112] la_data_out[113] la_data_out[114] la_data_out[115] la_data_out[116]
+ la_data_out[117] la_data_out[118] la_data_out[119] la_data_out[11] la_data_out[120]
+ la_data_out[121] la_data_out[122] la_data_out[123] la_data_out[124] la_data_out[125]
+ la_data_out[126] la_data_out[127] la_data_out[12] la_data_out[13] la_data_out[14]
+ la_data_out[15] la_data_out[16] la_data_out[17] la_data_out[18] la_data_out[19]
+ la_data_out[1] la_data_out[20] la_data_out[21] la_data_out[22] la_data_out[23] la_data_out[24]
+ la_data_out[25] la_data_out[26] la_data_out[27] la_data_out[28] la_data_out[29]
+ la_data_out[2] la_data_out[30] la_data_out[31] la_data_out[32] la_data_out[33] la_data_out[34]
+ la_data_out[35] la_data_out[36] la_data_out[37] la_data_out[38] la_data_out[39]
+ la_data_out[3] la_data_out[40] la_data_out[41] la_data_out[42] la_data_out[43] la_data_out[44]
+ la_data_out[45] la_data_out[46] la_data_out[47] la_data_out[48] la_data_out[49]
+ la_data_out[4] la_data_out[50] la_data_out[51] la_data_out[52] la_data_out[53] la_data_out[54]
+ la_data_out[55] la_data_out[56] la_data_out[57] la_data_out[58] la_data_out[59]
+ la_data_out[5] la_data_out[60] la_data_out[61] la_data_out[62] la_data_out[63] la_data_out[64]
+ la_data_out[65] la_data_out[66] la_data_out[67] la_data_out[68] la_data_out[69]
+ la_data_out[6] la_data_out[70] la_data_out[71] la_data_out[72] la_data_out[73] la_data_out[74]
+ la_data_out[75] la_data_out[76] la_data_out[77] la_data_out[78] la_data_out[79]
+ la_data_out[7] la_data_out[80] la_data_out[81] la_data_out[82] la_data_out[83] la_data_out[84]
+ la_data_out[85] la_data_out[86] la_data_out[87] la_data_out[88] la_data_out[89]
+ la_data_out[8] la_data_out[90] la_data_out[91] la_data_out[92] la_data_out[93] la_data_out[94]
+ la_data_out[95] la_data_out[96] la_data_out[97] la_data_out[98] la_data_out[99]
+ la_data_out[9] la_oenb[0] la_oenb[100] la_oenb[101] la_oenb[102] la_oenb[103] la_oenb[104]
+ la_oenb[105] la_oenb[106] la_oenb[107] la_oenb[108] la_oenb[109] la_oenb[10] la_oenb[110]
+ la_oenb[111] la_oenb[112] la_oenb[113] la_oenb[114] la_oenb[115] la_oenb[116] la_oenb[117]
+ la_oenb[118] la_oenb[119] la_oenb[11] la_oenb[120] la_oenb[121] la_oenb[122] la_oenb[123]
+ la_oenb[124] la_oenb[125] la_oenb[126] la_oenb[127] la_oenb[12] la_oenb[13] la_oenb[14]
+ la_oenb[15] la_oenb[16] la_oenb[17] la_oenb[18] la_oenb[19] la_oenb[1] la_oenb[20]
+ la_oenb[21] la_oenb[22] la_oenb[23] la_oenb[24] la_oenb[25] la_oenb[26] la_oenb[27]
+ la_oenb[28] la_oenb[29] la_oenb[2] la_oenb[30] la_oenb[31] la_oenb[32] la_oenb[33]
+ la_oenb[34] la_oenb[35] la_oenb[36] la_oenb[37] la_oenb[38] la_oenb[39] la_oenb[3]
+ la_oenb[40] la_oenb[41] la_oenb[42] la_oenb[43] la_oenb[44] la_oenb[45] la_oenb[46]
+ la_oenb[47] la_oenb[48] la_oenb[49] la_oenb[4] la_oenb[50] la_oenb[51] la_oenb[52]
+ la_oenb[53] la_oenb[54] la_oenb[55] la_oenb[56] la_oenb[57] la_oenb[58] la_oenb[59]
+ la_oenb[5] la_oenb[60] la_oenb[61] la_oenb[62] la_oenb[63] la_oenb[64] la_oenb[65]
+ la_oenb[66] la_oenb[67] la_oenb[68] la_oenb[69] la_oenb[6] la_oenb[70] la_oenb[71]
+ la_oenb[72] la_oenb[73] la_oenb[74] la_oenb[75] la_oenb[76] la_oenb[77] la_oenb[78]
+ la_oenb[79] la_oenb[7] la_oenb[80] la_oenb[81] la_oenb[82] la_oenb[83] la_oenb[84]
+ la_oenb[85] la_oenb[86] la_oenb[87] la_oenb[88] la_oenb[89] la_oenb[8] la_oenb[90]
+ la_oenb[91] la_oenb[92] la_oenb[93] la_oenb[94] la_oenb[95] la_oenb[96] la_oenb[97]
+ la_oenb[98] la_oenb[99] la_oenb[9] user_clock2 user_irq[0] user_irq[1] user_irq[2]
+ vccd1 vccd2 vdda1 vdda2 vssa1 vssa2 vssd1 vssd2 wb_clk_i wb_rst_i wbs_ack_o wbs_adr_i[0]
+ wbs_adr_i[10] wbs_adr_i[11] wbs_adr_i[12] wbs_adr_i[13] wbs_adr_i[14] wbs_adr_i[15]
+ wbs_adr_i[16] wbs_adr_i[17] wbs_adr_i[18] wbs_adr_i[19] wbs_adr_i[1] wbs_adr_i[20]
+ wbs_adr_i[21] wbs_adr_i[22] wbs_adr_i[23] wbs_adr_i[24] wbs_adr_i[25] wbs_adr_i[26]
+ wbs_adr_i[27] wbs_adr_i[28] wbs_adr_i[29] wbs_adr_i[2] wbs_adr_i[30] wbs_adr_i[31]
+ wbs_adr_i[3] wbs_adr_i[4] wbs_adr_i[5] wbs_adr_i[6] wbs_adr_i[7] wbs_adr_i[8] wbs_adr_i[9]
+ wbs_cyc_i wbs_dat_i[0] wbs_dat_i[10] wbs_dat_i[11] wbs_dat_i[12] wbs_dat_i[13] wbs_dat_i[14]
+ wbs_dat_i[15] wbs_dat_i[16] wbs_dat_i[17] wbs_dat_i[18] wbs_dat_i[19] wbs_dat_i[1]
+ wbs_dat_i[20] wbs_dat_i[21] wbs_dat_i[22] wbs_dat_i[23] wbs_dat_i[24] wbs_dat_i[25]
+ wbs_dat_i[26] wbs_dat_i[27] wbs_dat_i[28] wbs_dat_i[29] wbs_dat_i[2] wbs_dat_i[30]
+ wbs_dat_i[31] wbs_dat_i[3] wbs_dat_i[4] wbs_dat_i[5] wbs_dat_i[6] wbs_dat_i[7] wbs_dat_i[8]
+ wbs_dat_i[9] wbs_dat_o[0] wbs_dat_o[10] wbs_dat_o[11] wbs_dat_o[12] wbs_dat_o[13]
+ wbs_dat_o[14] wbs_dat_o[15] wbs_dat_o[16] wbs_dat_o[17] wbs_dat_o[18] wbs_dat_o[19]
+ wbs_dat_o[1] wbs_dat_o[20] wbs_dat_o[21] wbs_dat_o[22] wbs_dat_o[23] wbs_dat_o[24]
+ wbs_dat_o[25] wbs_dat_o[26] wbs_dat_o[27] wbs_dat_o[28] wbs_dat_o[29] wbs_dat_o[2]
+ wbs_dat_o[30] wbs_dat_o[31] wbs_dat_o[3] wbs_dat_o[4] wbs_dat_o[5] wbs_dat_o[6]
+ wbs_dat_o[7] wbs_dat_o[8] wbs_dat_o[9] wbs_sel_i[0] wbs_sel_i[1] wbs_sel_i[2] wbs_sel_i[3]
+ wbs_stb_i wbs_we_i
C0 divbuf_0/a_16320_n1600# divbuf_0/a_16800_n1600# 0.26fF
C1 divbuf_0/a_6822_n240# divbuf_0/a_6750_n840# 0.03fF
C2 io_analog[2] io_analog[1] 0.02fF
C3 divbuf_0/a_39390_n840# divbuf_0/a_39390_n1540# 0.01fF
C4 divbuf_0/a_15182_170# divbuf_0/OUT4 0.19fF
C5 divbuf_0/a_8670_n1540# divbuf_0/a_9150_n1540# 0.11fF
C6 divbuf_0/a_6240_n1600# divbuf_0/a_6270_n840# 0.04fF
C7 divider_0/nor_1/Z1 divider_0/and_0/B 0.18fF
C8 divbuf_0/a_22952_170# divbuf_0/a_23442_170# 0.07fF
C9 divbuf_0/a_14702_n240# divbuf_0/OUT4 0.04fF
C10 divider_0/tspc_0/Z4 divider_0/nor_1/A 0.21fF
C11 divider_0/prescaler_0/tspc_0/Z4 divider_0/prescaler_0/tspc_0/D 0.11fF
C12 divider_0/prescaler_0/tspc_0/a_740_n680# gnd 0.22fF
C13 divbuf_0/a_48510_n1540# divbuf_0/a_48990_n1540# 0.11fF
C14 divbuf_0/a_56160_n1600# divbuf_0/a_56640_n1600# 0.26fF
C15 divbuf_0/a_12960_n1600# divbuf_0/OUT4 0.00fF
C16 divbuf_0/a_46080_n1600# divbuf_0/a_46110_n840# 0.04fF
C17 divbuf_0/a_23922_n240# divbuf_0/a_24412_n240# 0.04fF
C18 divbuf_0/a_5310_n840# divbuf_0/a_5310_n1540# 0.01fF
C19 divbuf_0/a_35550_n840# divbuf_0/a_36030_n840# 0.07fF
C20 divbuf_0/a_35520_n1600# divbuf_0/a_35550_n1540# 0.19fF
C21 divbuf_0/a_60030_n1540# divbuf_0/a_60510_n1540# 0.11fF
C22 pd_0/REF pd_0/tspc_r_1/Qbar1 0.12fF
C23 io_clamp_high[2] io_analog[6] 0.53fF
C24 divbuf_0/a_12772_n240# divbuf_0/a_12990_n840# 0.02fF
C25 divbuf_0/a_9242_170# divbuf_0/a_9732_170# 0.07fF
C26 divbuf_0/a_22080_n1600# divbuf_0/a_22560_n1600# 0.26fF
C27 divbuf_0/a_14430_n1540# divbuf_0/a_14910_n1540# 0.11fF
C28 divbuf_0/a_45150_n840# divbuf_0/a_45150_n1540# 0.01fF
C29 divbuf_0/a_25382_170# divbuf_0/OUT4 0.19fF
C30 divbuf_0/a_12000_n1600# divbuf_0/a_12030_n840# 0.04fF
C31 divbuf_0/a_28772_170# divbuf_0/a_29262_170# 0.07fF
C32 divbuf_0/a_26352_n240# divbuf_0/OUT4 0.04fF
C33 divider_0/tspc_1/Z3 gnd 0.27fF
C34 divider_0/prescaler_0/tspc_0/Z3 divider_0/clk 0.45fF
C35 divbuf_0/a_1470_n840# divbuf_0/a_1950_n840# 0.07fF
C36 divbuf_0/a_1440_n1600# divbuf_0/a_1470_n1540# 0.19fF
C37 divbuf_0/a_24480_n1600# divbuf_0/OUT4 0.00fF
C38 divbuf_0/a_51840_n1600# divbuf_0/a_51870_n840# 0.04fF
C39 divbuf_0/a_11070_n840# divbuf_0/a_11070_n1540# 0.01fF
C40 divbuf_0/a_41310_n840# divbuf_0/a_41790_n840# 0.07fF
C41 divbuf_0/a_41280_n1600# divbuf_0/a_41310_n1540# 0.19fF
C42 divbuf_0/a_29742_n240# divbuf_0/a_30232_n240# 0.04fF
C43 divbuf_0/a_51390_n1540# divbuf_0/a_51870_n1540# 0.11fF
C44 divbuf_0/a_27840_n1600# divbuf_0/a_28320_n1600# 0.26fF
C45 divbuf_0/a_18582_n240# divbuf_0/a_18750_n840# 0.02fF
C46 ro_complete_0/cbank_0/switch_0/vin ro_complete_0/a4 0.12fF
C47 ro_complete_0/a2 ro_complete_0/cbank_0/switch_3/vin 0.09fF
C48 divbuf_0/a_37022_170# divbuf_0/OUT4 0.19fF
C49 divbuf_0/a_20190_n1540# divbuf_0/a_20670_n1540# 0.11fF
C50 divbuf_0/a_50910_n840# divbuf_0/a_50910_n1540# 0.01fF
C51 divider_0/prescaler_0/tspc_0/Z3 divider_0/prescaler_0/tspc_0/Z4 0.65fF
C52 divbuf_0/a_17760_n1600# divbuf_0/a_17790_n840# 0.04fF
C53 divbuf_0/a_37992_n240# divbuf_0/OUT4 0.04fF
C54 divbuf_0/a_34592_170# divbuf_0/a_35082_170# 0.07fF
C55 divider_0/prescaler_0/tspc_0/Q gnd 0.35fF
C56 divbuf_0/a_7230_n840# divbuf_0/a_7710_n840# 0.07fF
C57 divbuf_0/a_7200_n1600# divbuf_0/a_7230_n1540# 0.19fF
C58 divbuf_0/a_36000_n1600# divbuf_0/OUT4 0.00fF
C59 divbuf_0/a_57600_n1600# divbuf_0/a_57630_n840# 0.04fF
C60 divbuf_0/a_47040_n1600# divbuf_0/a_47070_n1540# 0.19fF
C61 divbuf_0/a_35562_n240# divbuf_0/a_36052_n240# 0.04fF
C62 divbuf_0/a_16830_n840# divbuf_0/a_16830_n1540# 0.01fF
C63 divbuf_0/a_47070_n840# divbuf_0/a_47550_n840# 0.07fF
C64 divbuf_0/a_59550_n840# divbuf_0/a_59550_n1540# 0.01fF
C65 divbuf_0/a_8762_170# divbuf_0/OUT3 0.19fF
C66 divbuf_0/a_7302_170# divbuf_0/a_7792_170# 0.07fF
C67 divbuf_0/a_24412_n240# divbuf_0/a_24510_n840# 0.03fF
C68 divbuf_0/a_12772_170# divbuf_0/a_13252_170# 0.07fF
C69 divbuf_0/a_33600_n1600# divbuf_0/a_34080_n1600# 0.26fF
C70 ro_complete_0/cbank_1/switch_1/vin ro_complete_0/cbank_1/switch_2/vin 0.20fF
C71 divbuf_0/a_25950_n1540# divbuf_0/a_26430_n1540# 0.11fF
C72 divbuf_0/a_9242_n240# divbuf_0/OUT3 0.04fF
C73 divider_0/mc2 divider_0/and_0/B 0.20fF
C74 divider_0/tspc_0/Q divider_0/tspc_1/Z3 0.45fF
C75 divider_0/prescaler_0/tspc_1/Z1 divider_0/prescaler_0/tspc_1/Z4 0.00fF
C76 divbuf_0/a_23520_n1600# divbuf_0/a_23550_n840# 0.04fF
C77 divbuf_0/a_54270_n1540# divbuf_0/a_54750_n1540# 0.11fF
C78 divbuf_0/a_40412_170# divbuf_0/a_40902_170# 0.07fF
C79 divbuf_0/a_21012_170# divbuf_0/a_21012_n240# 0.01fF
C80 gnd divider_0/and_0/A 0.53fF
C81 divbuf_0/a_12990_n840# divbuf_0/a_13470_n840# 0.07fF
C82 divbuf_0/a_12960_n1600# divbuf_0/a_12990_n1540# 0.19fF
C83 divbuf_0/a_55680_n1600# divbuf_0/a_55710_n1540# 0.19fF
C84 divbuf_0/a_53790_n840# divbuf_0/a_53790_n1540# 0.01fF
C85 pd_0/DOWN pd_0/UP 0.46fF
C86 pd_0/tspc_r_0/Z4 pd_0/tspc_r_0/z5 0.04fF
C87 divbuf_0/a_52830_n840# divbuf_0/a_53310_n840# 0.07fF
C88 divbuf_0/a_22590_n840# divbuf_0/a_22590_n1540# 0.01fF
C89 divider_0/nor_0/Z1 divider_0/nor_1/B 0.18fF
C90 divbuf_0/a_20042_170# divbuf_0/OUT4 0.19fF
C91 divbuf_0/a_39360_n1600# divbuf_0/a_39840_n1600# 0.26fF
C92 divbuf_0/a_30232_n240# divbuf_0/a_30270_n840# 0.05fF
C93 ro_complete_0/a5 ro_complete_0/cbank_1/v 0.10fF
C94 ro_complete_0/cbank_0/switch_5/vin ro_complete_0/a0 0.09fF
C95 divbuf_0/a_21012_n240# divbuf_0/OUT4 0.04fF
C96 divbuf_0/a_31710_n1540# divbuf_0/a_32190_n1540# 0.11fF
C97 divider_0/prescaler_0/tspc_2/Z1 divider_0/prescaler_0/tspc_2/Z3 0.06fF
C98 divider_0/prescaler_0/m1_2700_2190# gnd 0.22fF
C99 divbuf_0/a_29280_n1600# divbuf_0/a_29310_n840# 0.04fF
C100 divbuf_0/a_19200_n1600# divbuf_0/OUT4 0.00fF
C101 divbuf_0/a_26832_170# divbuf_0/a_26832_n240# 0.01fF
C102 divbuf_0/a_6332_n240# divbuf_0/a_6822_n240# 0.04fF
C103 divbuf_0/a_18750_n840# divbuf_0/a_19230_n840# 0.07fF
C104 divbuf_0/a_18720_n1600# divbuf_0/a_18750_n1540# 0.19fF
C105 divbuf_0/a_5280_n1600# divbuf_0/a_5760_n1600# 0.26fF
C106 divbuf_0/a_58590_n840# divbuf_0/a_59070_n840# 0.07fF
C107 divbuf_0/a_28350_n840# divbuf_0/a_28350_n1540# 0.01fF
C108 divbuf_0/a_6332_170# divbuf_0/OUT3 0.19fF
C109 divbuf_0/a_16152_n240# divbuf_0/a_15870_n840# 0.01fF
C110 divider_0/tspc_1/a_630_n680# divider_0/tspc_1/Z2 0.01fF
C111 divbuf_0/a_31682_170# divbuf_0/OUT4 0.19fF
C112 divbuf_0/a_36052_n240# divbuf_0/a_36030_n840# 0.05fF
C113 divbuf_0/a_45120_n1600# divbuf_0/a_45600_n1600# 0.26fF
C114 divbuf_0/a_32652_n240# divbuf_0/OUT4 0.04fF
C115 divbuf_0/a_37470_n1540# divbuf_0/a_37950_n1540# 0.11fF
C116 divider_0/and_0/OUT divider_0/prescaler_0/tspc_0/Q 0.04fF
C117 divider_0/prescaler_0/tspc_1/Z3 divider_0/clk 0.45fF
C118 divbuf_0/a_35040_n1600# divbuf_0/a_35070_n840# 0.04fF
C119 divbuf_0/a_32652_170# divbuf_0/a_32652_n240# 0.01fF
C120 divbuf_0/a_12772_n240# divbuf_0/a_13252_n240# 0.05fF
C121 divbuf_0/a_24480_n1600# divbuf_0/a_24510_n1540# 0.19fF
C122 divbuf_0/a_24510_n840# divbuf_0/a_24990_n840# 0.07fF
C123 ashish_0/a_150_0# ashish_0/von 9.14fF
C124 divbuf_0/a_3390_n1540# divbuf_0/a_3870_n1540# 0.11fF
C125 divbuf_0/a_11040_n1600# divbuf_0/a_11520_n1600# 0.26fF
C126 divbuf_0/a_34110_n840# divbuf_0/a_34110_n1540# 0.01fF
C127 ro_complete_0/cbank_0/switch_1/vin ro_complete_0/a3 0.13fF
C128 divbuf_0/a_960_n1600# divbuf_0/a_990_n840# 0.04fF
C129 divider_0/nor_1/Z1 gnd 0.01fF
C130 divbuf_0/a_3912_n240# divbuf_0/OUT3 0.04fF
C131 divbuf_0/a_19072_170# divbuf_0/a_19562_170# 0.07fF
C132 divbuf_0/a_50880_n1600# divbuf_0/a_51360_n1600# 0.26fF
C133 divbuf_0/a_5362_170# divbuf_0/a_5362_n240# 0.01fF
C134 divbuf_0/a_43230_n1540# divbuf_0/a_43710_n1540# 0.11fF
C135 divbuf_0/a_19072_170# divbuf_0/a_19072_n240# 0.01fF
C136 gnd divider_0/Out 0.29fF
C137 divider_0/tspc_2/a_630_n680# divider_0/nor_0/B 0.35fF
C138 divbuf_0/a_40800_n1600# divbuf_0/a_40830_n840# 0.04fF
C139 divbuf_0/a_18582_n240# divbuf_0/a_19072_n240# 0.04fF
C140 divbuf_0/a_38472_170# divbuf_0/a_38472_n240# 0.01fF
C141 divbuf_0/a_30270_n840# divbuf_0/a_30750_n840# 0.07fF
C142 divbuf_0/a_30240_n1600# divbuf_0/a_30270_n1540# 0.19fF
C143 pd_0/tspc_r_0/Qbar1 pd_0/R 0.01fF
C144 pd_0/DIV pd_0/tspc_r_0/Z4 0.02fF
C145 pd_0/DOWN pd_0/tspc_r_0/Qbar 0.21fF
C146 divbuf_0/a_60990_n840# divbuf_0/OUT5 0.04fF
C147 divbuf_0/a_7302_n240# divbuf_0/a_7230_n840# 0.03fF
C148 divbuf_0/a_16800_n1600# divbuf_0/a_17280_n1600# 0.26fF
C149 divbuf_0/a_39870_n840# divbuf_0/a_39870_n1540# 0.01fF
C150 divbuf_0/a_9150_n1540# divbuf_0/a_9630_n1540# 0.11fF
C151 divbuf_0/a_16152_170# divbuf_0/OUT4 0.19fF
C152 ro_complete_0/cbank_1/switch_3/vin ro_complete_0/cbank_1/v 1.30fF
C153 divbuf_0/a_6720_n1600# divbuf_0/a_6750_n840# 0.04fF
C154 divbuf_0/a_15672_n240# divbuf_0/OUT4 0.04fF
C155 divider_0/prescaler_0/m1_2700_2190# divider_0/and_0/OUT 0.14fF
C156 divider_0/prescaler_0/tspc_0/a_630_n680# gnd 0.61fF
C157 divbuf_0/a_56640_n1600# divbuf_0/a_57120_n1600# 0.26fF
C158 divbuf_0/a_23442_170# divbuf_0/a_23922_170# 0.07fF
C159 divbuf_0/a_48990_n1540# divbuf_0/a_49470_n1540# 0.11fF
C160 divider_0/prescaler_0/Out divider_0/tspc_0/Z2 0.11fF
C161 divbuf_0/a_46560_n1600# divbuf_0/a_46590_n840# 0.04fF
C162 divbuf_0/a_24412_n240# divbuf_0/a_24892_n240# 0.05fF
C163 divbuf_0/a_5790_n840# divbuf_0/a_5790_n1540# 0.01fF
C164 divbuf_0/a_36030_n840# divbuf_0/a_36510_n840# 0.07fF
C165 divbuf_0/a_36000_n1600# divbuf_0/a_36030_n1540# 0.19fF
C166 pd_0/tspc_r_1/Z3 pd_0/UP 0.03fF
C167 divbuf_0/a_60510_n1540# divbuf_0/a_60990_n1540# 0.11fF
C168 io_clamp_low[1] io_analog[5] 0.53fF
C169 divbuf_0/a_9732_170# divbuf_0/a_10212_170# 0.07fF
C170 divbuf_0/a_45630_n840# divbuf_0/a_45630_n1540# 0.01fF
C171 divbuf_0/a_13252_n240# divbuf_0/a_13470_n840# 0.02fF
C172 divbuf_0/a_14910_n1540# divbuf_0/a_15390_n1540# 0.11fF
C173 divbuf_0/a_22560_n1600# divbuf_0/a_23040_n1600# 0.26fF
C174 divbuf_0/a_26352_170# divbuf_0/OUT4 0.19fF
C175 ro_complete_0/a0 ro_complete_0/cbank_2/switch_4/vin 0.13fF
C176 ro_complete_0/cbank_0/v ro_complete_0/cbank_1/v 1.27fF
C177 divbuf_0/a_12480_n1600# divbuf_0/a_12510_n840# 0.04fF
C178 divbuf_0/a_27322_n240# divbuf_0/OUT4 0.04fF
C179 divider_0/tspc_0/Z1 divider_0/tspc_0/Z2 1.07fF
C180 divider_0/prescaler_0/tspc_2/a_740_n680# gnd 0.22fF
C181 divider_0/prescaler_0/tspc_0/Z4 divider_0/clk 0.12fF
C182 divbuf_0/a_29262_170# divbuf_0/a_29742_170# 0.07fF
C183 divbuf_0/a_1950_n840# divbuf_0/a_2430_n840# 0.07fF
C184 divbuf_0/a_1920_n1600# divbuf_0/a_1950_n1540# 0.19fF
C185 divbuf_0/a_54750_n1540# divbuf_0/a_55230_n1540# 0.11fF
C186 divbuf_0/a_52320_n1600# divbuf_0/a_52350_n840# 0.04fF
C187 divbuf_0/a_30232_n240# divbuf_0/a_30712_n240# 0.05fF
C188 divbuf_0/a_11550_n840# divbuf_0/a_11550_n1540# 0.01fF
C189 divbuf_0/a_41790_n840# divbuf_0/a_42270_n840# 0.07fF
C190 divbuf_0/a_41760_n1600# divbuf_0/a_41790_n1540# 0.19fF
C191 ro_complete_0/a2 ro_complete_0/cbank_2/switch_3/vin 0.09fF
C192 divbuf_0/a_28320_n1600# divbuf_0/a_28800_n1600# 0.26fF
C193 divbuf_0/a_51390_n840# divbuf_0/a_51390_n1540# 0.01fF
C194 divbuf_0/a_19072_n240# divbuf_0/a_19230_n840# 0.02fF
C195 divbuf_0/a_20670_n1540# divbuf_0/a_21150_n1540# 0.11fF
C196 divider_0/tspc_1/a_630_n680# divider_0/tspc_1/Z4 0.12fF
C197 divider_0/mc2 gnd 1.36fF
C198 divbuf_0/a_37992_170# divbuf_0/OUT4 0.19fF
C199 divbuf_0/a_2322_170# divbuf_0/a_2322_n240# 0.01fF
C200 divbuf_0/a_18240_n1600# divbuf_0/a_18270_n840# 0.04fF
C201 divbuf_0/a_38962_n240# divbuf_0/OUT4 0.04fF
C202 divider_0/nor_1/A divider_0/prescaler_0/Out 0.15fF
C203 divider_0/prescaler_0/tspc_2/D gnd 0.05fF
C204 divider_0/prescaler_0/tspc_2/Z3 divider_0/clk 0.64fF
C205 divbuf_0/a_7710_n840# divbuf_0/a_8190_n840# 0.07fF
C206 divbuf_0/a_7680_n1600# divbuf_0/a_7710_n1540# 0.19fF
C207 divbuf_0/a_35082_170# divbuf_0/a_35562_170# 0.07fF
C208 divbuf_0/a_58080_n1600# divbuf_0/a_58110_n840# 0.04fF
C209 divbuf_0/a_36052_n240# divbuf_0/a_36532_n240# 0.05fF
C210 divbuf_0/a_47520_n1600# divbuf_0/a_47550_n1540# 0.19fF
C211 divbuf_0/a_17310_n840# divbuf_0/a_17310_n1540# 0.01fF
C212 divbuf_0/a_47550_n840# divbuf_0/a_48030_n840# 0.07fF
C213 divbuf_0/a_60030_n840# divbuf_0/a_60030_n1540# 0.01fF
C214 divbuf_0/a_13252_170# divbuf_0/a_13742_170# 0.07fF
C215 divbuf_0/a_24892_n240# divbuf_0/a_24990_n840# 0.03fF
C216 divbuf_0/a_26430_n1540# divbuf_0/a_26910_n1540# 0.11fF
C217 divbuf_0/a_34080_n1600# divbuf_0/a_34560_n1600# 0.26fF
C218 divbuf_0/a_10212_n240# divbuf_0/OUT3 0.04fF
C219 divbuf_0/a_3422_170# divbuf_0/a_3422_n240# 0.01fF
C220 divider_0/tspc_0/Z1 divider_0/nor_1/A 0.03fF
C221 divider_0/prescaler_0/tspc_1/Z3 divider_0/prescaler_0/tspc_1/Z4 0.65fF
C222 divbuf_0/a_24000_n1600# divbuf_0/a_24030_n840# 0.04fF
C223 divbuf_0/a_9120_n1600# divbuf_0/OUT3 0.00fF
C224 divbuf_0/a_40902_170# divbuf_0/a_41382_170# 0.07fF
C225 divbuf_0/a_21502_170# divbuf_0/a_21502_n240# 0.01fF
C226 divbuf_0/a_13470_n840# divbuf_0/a_13950_n840# 0.07fF
C227 divbuf_0/a_13440_n1600# divbuf_0/a_13470_n1540# 0.19fF
C228 divbuf_0/a_56160_n1600# divbuf_0/a_56190_n1540# 0.19fF
C229 divbuf_0/a_54270_n840# divbuf_0/a_54270_n1540# 0.01fF
C230 divbuf_0/a_0_n1600# divbuf_0/a_480_n1600# 0.26fF
C231 cp_0/a_1710_0# cp_0/a_1710_n2840# 0.83fF
C232 pd_0/R pd_0/REF 0.61fF
C233 divbuf_0/a_53310_n840# divbuf_0/a_53790_n840# 0.07fF
C234 divbuf_0/a_23070_n840# divbuf_0/a_23070_n1540# 0.01fF
C235 divbuf_0/a_21012_170# divbuf_0/OUT4 0.19fF
C236 ro_complete_0/a2 ro_complete_0/cbank_2/v 0.05fF
C237 divbuf_0/a_32190_n1540# divbuf_0/a_32670_n1540# 0.11fF
C238 divbuf_0/a_39840_n1600# divbuf_0/a_40320_n1600# 0.26fF
C239 divbuf_0/a_30712_n240# divbuf_0/a_30750_n840# 0.05fF
C240 divbuf_0/a_21982_n240# divbuf_0/OUT4 0.04fF
C241 divider_0/prescaler_0/tspc_2/Z1 divider_0/prescaler_0/tspc_2/Z4 0.00fF
C242 divider_0/prescaler_0/tspc_1/a_630_n680# gnd 0.61fF
C243 divider_0/prescaler_0/tspc_1/Z3 divider_0/prescaler_0/tspc_1/Q 0.21fF
C244 divbuf_0/a_29760_n1600# divbuf_0/a_29790_n840# 0.04fF
C245 divbuf_0/a_20160_n1600# divbuf_0/OUT4 0.00fF
C246 divider_0/and_0/B divider_0/and_0/Z1 0.07fF
C247 divbuf_0/a_19230_n840# divbuf_0/a_19710_n840# 0.07fF
C248 divbuf_0/a_19200_n1600# divbuf_0/a_19230_n1540# 0.19fF
C249 divbuf_0/a_27322_170# divbuf_0/a_27322_n240# 0.01fF
C250 divbuf_0/a_6822_n240# divbuf_0/a_7302_n240# 0.05fF
C251 divbuf_0/a_510_n840# divbuf_0/OUT2 0.02fF
C252 io_clamp_low[0] io_clamp_high[0] 0.53fF
C253 divbuf_0/a_5760_n1600# divbuf_0/a_6240_n1600# 0.26fF
C254 divbuf_0/a_59070_n840# divbuf_0/a_59550_n840# 0.07fF
C255 divbuf_0/a_28830_n840# divbuf_0/a_28830_n1540# 0.01fF
C256 divbuf_0/a_7302_170# divbuf_0/OUT3 0.19fF
C257 divbuf_0/a_16642_n240# divbuf_0/a_16350_n840# 0.00fF
C258 ro_complete_0/cbank_0/switch_0/vin ro_complete_0/cbank_0/switch_1/vin 0.19fF
C259 divider_0/mc2 divider_0/and_0/OUT 0.05fF
C260 divider_0/tspc_1/a_630_n680# divider_0/tspc_1/Q 0.04fF
C261 divbuf_0/a_32652_170# divbuf_0/OUT4 0.19fF
C262 divider_0/prescaler_0/tspc_0/a_740_n680# divider_0/prescaler_0/tspc_0/Z3 0.33fF
C263 divbuf_0/a_36532_n240# divbuf_0/a_36510_n840# 0.05fF
C264 divbuf_0/a_37950_n1540# divbuf_0/a_38430_n1540# 0.11fF
C265 divbuf_0/a_45600_n1600# divbuf_0/a_46080_n1600# 0.26fF
C266 divbuf_0/a_33622_n240# divbuf_0/OUT4 0.04fF
C267 divider_0/prescaler_0/tspc_1/Z4 divider_0/clk 0.12fF
C268 divbuf_0/a_35520_n1600# divbuf_0/a_35550_n840# 0.04fF
C269 divbuf_0/a_31680_n1600# divbuf_0/OUT4 0.00fF
C270 divbuf_0/a_24960_n1600# divbuf_0/a_24990_n1540# 0.19fF
C271 divbuf_0/a_33142_170# divbuf_0/a_33142_n240# 0.01fF
C272 divbuf_0/a_13252_n240# divbuf_0/a_13742_n240# 0.04fF
C273 divbuf_0/a_24990_n840# divbuf_0/a_25470_n840# 0.07fF
C274 ashish_0/a_150_n710# ashish_0/vop 9.14fF
C275 ashish_0/a_150_0# ashish_0/Gnd 1.74fF
C276 divbuf_0/a_492_n240# divbuf_0/a_510_n840# 0.00fF
C277 divbuf_0/a_11520_n1600# divbuf_0/a_12000_n1600# 0.26fF
C278 divbuf_0/a_3870_n1540# divbuf_0/a_4350_n1540# 0.11fF
C279 divbuf_0/a_34590_n840# divbuf_0/a_34590_n1540# 0.01fF
C280 divbuf_0/a_1440_n1600# divbuf_0/a_1470_n840# 0.04fF
C281 divbuf_0/a_5852_170# divbuf_0/a_5852_n240# 0.01fF
C282 divbuf_0/a_4882_n240# divbuf_0/OUT3 0.04fF
C283 divbuf_0/a_43710_n1540# divbuf_0/a_44190_n1540# 0.11fF
C284 divbuf_0/a_51360_n1600# divbuf_0/a_51840_n1600# 0.26fF
C285 divbuf_0/a_19562_170# divbuf_0/a_19562_n240# 0.01fF
C286 divider_0/tspc_2/a_630_n680# divider_0/tspc_2/Z2 0.01fF
C287 divider_0/prescaler_0/tspc_1/Q divider_0/clk 0.60fF
C288 divbuf_0/a_41280_n1600# divbuf_0/a_41310_n840# 0.04fF
C289 divbuf_0/a_30750_n840# divbuf_0/a_31230_n840# 0.07fF
C290 divbuf_0/a_30720_n1600# divbuf_0/a_30750_n1540# 0.19fF
C291 divbuf_0/a_510_n840# divbuf_0/a_510_n1540# 0.01fF
C292 divbuf_0/a_19072_n240# divbuf_0/a_19562_n240# 0.04fF
C293 divbuf_0/a_38962_170# divbuf_0/a_38962_n240# 0.01fF
C294 pd_0/tspc_r_0/Z3 pd_0/tspc_r_0/z5 0.11fF
C295 divbuf_0/a_55230_n1540# divbuf_0/a_55710_n1540# 0.11fF
C296 divbuf_0/a_7792_n240# divbuf_0/a_7710_n840# 0.03fF
C297 divbuf_0/a_17280_n1600# divbuf_0/a_17760_n1600# 0.26fF
C298 divbuf_0/a_510_n1540# divbuf_0/OUT 0.11fF
C299 divbuf_0/a_40350_n840# divbuf_0/a_40350_n1540# 0.01fF
C300 divbuf_0/a_17122_170# divbuf_0/OUT4 0.19fF
C301 divbuf_0/a_9630_n1540# divbuf_0/a_10110_n1540# 0.11fF
C302 divbuf_0/a_7200_n1600# divbuf_0/a_7230_n840# 0.04fF
C303 divbuf_0/a_16642_n240# divbuf_0/OUT4 0.04fF
C304 divbuf_0/a_23922_170# divbuf_0/a_24412_170# 0.07fF
C305 divbuf_0/a_1352_170# divbuf_0/a_1352_n240# 0.01fF
C306 divider_0/prescaler_0/m1_2700_2190# divider_0/prescaler_0/tspc_0/D 0.16fF
C307 divider_0/prescaler_0/tspc_0/Z3 divider_0/prescaler_0/tspc_0/Q 0.05fF
C308 divbuf_0/a_49470_n1540# divbuf_0/a_49950_n1540# 0.11fF
C309 divbuf_0/a_57120_n1600# divbuf_0/a_57600_n1600# 0.26fF
C310 divider_0/and_0/out1 divider_0/and_0/A 0.01fF
C311 divbuf_0/a_47040_n1600# divbuf_0/a_47070_n840# 0.04fF
C312 divbuf_0/a_24892_n240# divbuf_0/a_25382_n240# 0.04fF
C313 divbuf_0/a_6270_n840# divbuf_0/a_6270_n1540# 0.01fF
C314 divbuf_0/a_36510_n840# divbuf_0/a_36990_n840# 0.07fF
C315 divbuf_0/a_36480_n1600# divbuf_0/a_36510_n1540# 0.19fF
C316 pd_0/tspc_r_1/Z3 pd_0/tspc_r_1/Z1 0.09fF
C317 pd_0/REF pd_0/tspc_r_1/Z2 0.19fF
C318 divbuf_0/a_2322_170# divbuf_0/OUT3 0.07fF
C319 divbuf_0/a_13742_n240# divbuf_0/a_13950_n840# 0.02fF
C320 divbuf_0/a_23040_n1600# divbuf_0/a_23520_n1600# 0.26fF
C321 divbuf_0/a_46110_n840# divbuf_0/a_46110_n1540# 0.01fF
C322 divbuf_0/a_27322_170# divbuf_0/OUT4 0.19fF
C323 divbuf_0/a_15390_n1540# divbuf_0/a_15870_n1540# 0.11fF
C324 divbuf_0/a_12960_n1600# divbuf_0/a_12990_n840# 0.04fF
C325 divbuf_0/a_28292_n240# divbuf_0/OUT4 0.04fF
C326 divbuf_0/a_29742_170# divbuf_0/a_30232_170# 0.07fF
C327 divider_0/prescaler_0/tspc_2/Z3 divider_0/prescaler_0/tspc_1/Q 0.13fF
C328 divider_0/prescaler_0/tspc_2/a_630_n680# gnd 0.63fF
C329 divbuf_0/a_2430_n840# divbuf_0/a_2910_n840# 0.07fF
C330 divbuf_0/a_2400_n1600# divbuf_0/a_2430_n1540# 0.19fF
C331 divbuf_0/a_52800_n1600# divbuf_0/a_52830_n840# 0.04fF
C332 divbuf_0/a_12030_n840# divbuf_0/a_12030_n1540# 0.01fF
C333 divbuf_0/a_42270_n840# divbuf_0/a_42750_n840# 0.07fF
C334 divbuf_0/a_42240_n1600# divbuf_0/a_42270_n1540# 0.19fF
C335 divbuf_0/a_30712_n240# divbuf_0/a_31202_n240# 0.04fF
C336 divbuf_0/a_28800_n1600# divbuf_0/a_29280_n1600# 0.26fF
C337 divbuf_0/a_19562_n240# divbuf_0/a_19710_n840# 0.03fF
C338 ro_complete_0/a2 ro_complete_0/cbank_0/switch_2/vin 0.14fF
C339 ro_complete_0/cbank_0/switch_1/vin ro_complete_0/a4 0.09fF
C340 ro_complete_0/cbank_0/switch_0/vin ro_complete_0/a5 0.09fF
C341 divbuf_0/a_38962_170# divbuf_0/OUT4 0.19fF
C342 divbuf_0/a_21150_n1540# divbuf_0/a_21630_n1540# 0.11fF
C343 divbuf_0/a_18720_n1600# divbuf_0/a_18750_n840# 0.04fF
C344 divbuf_0/a_39932_n240# divbuf_0/OUT4 0.04fF
C345 divbuf_0/a_35562_170# divbuf_0/a_36052_170# 0.07fF
C346 divider_0/nor_1/A divider_0/tspc_0/Z2 0.23fF
C347 gnd divider_0/prescaler_0/nand_1/z1 0.16fF
C348 divider_0/prescaler_0/tspc_2/Z4 divider_0/clk 0.12fF
C349 divbuf_0/a_8190_n840# divbuf_0/a_8670_n840# 0.07fF
C350 divbuf_0/a_8160_n1600# divbuf_0/a_8190_n1540# 0.19fF
C351 divbuf_0/a_58560_n1600# divbuf_0/a_58590_n840# 0.04fF
C352 pd_0/DIV pd_0/tspc_r_0/Z3 0.65fF
C353 divbuf_0/a_48000_n1600# divbuf_0/a_48030_n1540# 0.19fF
C354 divbuf_0/a_36532_n240# divbuf_0/a_37022_n240# 0.04fF
C355 divbuf_0/a_17790_n840# divbuf_0/a_17790_n1540# 0.01fF
C356 divbuf_0/a_48030_n840# divbuf_0/a_48510_n840# 0.07fF
C357 divbuf_0/a_60510_n840# divbuf_0/a_60510_n1540# 0.01fF
C358 divbuf_0/a_11802_170# divbuf_0/OUT4 0.19fF
C359 divbuf_0/a_25382_n240# divbuf_0/a_25470_n840# 0.03fF
C360 divbuf_0/a_13742_170# divbuf_0/a_14222_170# 0.07fF
C361 divbuf_0/a_34560_n1600# divbuf_0/a_35040_n1600# 0.26fF
C362 divbuf_0/a_26910_n1540# divbuf_0/a_27390_n1540# 0.11fF
C363 divbuf_0/a_11312_n240# divbuf_0/OUT4 0.07fF
C364 divbuf_0/a_24480_n1600# divbuf_0/a_24510_n840# 0.04fF
C365 divider_0/tspc_0/Z4 divider_0/tspc_0/a_630_n680# 0.12fF
C366 divbuf_0/a_10080_n1600# divbuf_0/OUT3 0.00fF
C367 divbuf_0/a_21982_170# divbuf_0/a_21982_n240# 0.01fF