* SPICE3 file created from user_analog_project_wrapper.ext - technology: sky130A

.subckt user_analog_project_wrapper gpio_analog[0] gpio_analog[10] gpio_analog[11]
+ gpio_analog[12] gpio_analog[13] gpio_analog[14] gpio_analog[15] gpio_analog[16]
+ gpio_analog[17] gpio_analog[1] gpio_analog[2] gpio_analog[3] gpio_analog[4] gpio_analog[5]
+ gpio_analog[6] gpio_analog[7] gpio_analog[8] gpio_analog[9] gpio_noesd[0] gpio_noesd[10]
+ gpio_noesd[11] gpio_noesd[12] gpio_noesd[13] gpio_noesd[14] gpio_noesd[15] gpio_noesd[16]
+ gpio_noesd[17] gpio_noesd[1] gpio_noesd[2] gpio_noesd[3] gpio_noesd[4] gpio_noesd[5]
+ gpio_noesd[6] gpio_noesd[7] gpio_noesd[8] gpio_noesd[9] io_analog[0] io_analog[10]
+ io_analog[1] io_analog[2] io_analog[3] io_analog[5] io_analog[6] io_analog[7] io_analog[8]
+ io_analog[9] io_clamp_high[0] io_clamp_high[1] io_clamp_high[2] io_clamp_low[0]
+ io_clamp_low[1] io_clamp_low[2] io_in[0] io_in[10] io_in[11] io_in[12] io_in[13]
+ io_in[14] io_in[15] io_in[16] io_in[17] io_in[18] io_in[19] io_in[1] io_in[20] io_in[21]
+ io_in[22] io_in[23] io_in[24] io_in[25] io_in[26] io_in[2] io_in[3] io_in[4] io_in[5]
+ io_in[6] io_in[7] io_in[8] io_in[9] io_in_3v3[0] io_in_3v3[10] io_in_3v3[11] io_in_3v3[12]
+ io_in_3v3[13] io_in_3v3[14] io_in_3v3[15] io_in_3v3[16] io_in_3v3[17] io_in_3v3[18]
+ io_in_3v3[19] io_in_3v3[1] io_in_3v3[20] io_in_3v3[21] io_in_3v3[22] io_in_3v3[23]
+ io_in_3v3[24] io_in_3v3[25] io_in_3v3[26] io_in_3v3[2] io_in_3v3[3] io_in_3v3[4]
+ io_in_3v3[5] io_in_3v3[6] io_in_3v3[7] io_in_3v3[8] io_in_3v3[9] io_oeb[0] io_oeb[10]
+ io_oeb[11] io_oeb[12] io_oeb[13] io_oeb[14] io_oeb[15] io_oeb[16] io_oeb[17] io_oeb[18]
+ io_oeb[19] io_oeb[1] io_oeb[20] io_oeb[21] io_oeb[22] io_oeb[23] io_oeb[24] io_oeb[25]
+ io_oeb[26] io_oeb[2] io_oeb[3] io_oeb[4] io_oeb[5] io_oeb[6] io_oeb[7] io_oeb[8]
+ io_oeb[9] io_out[0] io_out[10] io_out[11] io_out[12] io_out[13] io_out[14] io_out[15]
+ io_out[16] io_out[17] io_out[18] io_out[19] io_out[1] io_out[20] io_out[21] io_out[22]
+ io_out[23] io_out[24] io_out[25] io_out[26] io_out[2] io_out[3] io_out[4] io_out[5]
+ io_out[6] io_out[7] io_out[8] io_out[9] la_data_in[0] la_data_in[100] la_data_in[101]
+ la_data_in[102] la_data_in[103] la_data_in[104] la_data_in[105] la_data_in[106]
+ la_data_in[107] la_data_in[108] la_data_in[109] la_data_in[10] la_data_in[110] la_data_in[111]
+ la_data_in[112] la_data_in[113] la_data_in[114] la_data_in[115] la_data_in[116]
+ la_data_in[117] la_data_in[118] la_data_in[119] la_data_in[11] la_data_in[120] la_data_in[121]
+ la_data_in[122] la_data_in[123] la_data_in[124] la_data_in[125] la_data_in[126]
+ la_data_in[127] la_data_in[12] la_data_in[13] la_data_in[14] la_data_in[15] la_data_in[16]
+ la_data_in[17] la_data_in[18] la_data_in[19] la_data_in[1] la_data_in[20] la_data_in[21]
+ la_data_in[22] la_data_in[23] la_data_in[24] la_data_in[25] la_data_in[26] la_data_in[27]
+ la_data_in[28] la_data_in[29] la_data_in[2] la_data_in[30] la_data_in[31] la_data_in[32]
+ la_data_in[33] la_data_in[34] la_data_in[35] la_data_in[36] la_data_in[37] la_data_in[38]
+ la_data_in[39] la_data_in[3] la_data_in[40] la_data_in[41] la_data_in[42] la_data_in[43]
+ la_data_in[44] la_data_in[45] la_data_in[46] la_data_in[47] la_data_in[48] la_data_in[49]
+ la_data_in[4] la_data_in[50] la_data_in[51] la_data_in[52] la_data_in[53] la_data_in[54]
+ la_data_in[55] la_data_in[56] la_data_in[57] la_data_in[58] la_data_in[59] la_data_in[5]
+ la_data_in[60] la_data_in[61] la_data_in[62] la_data_in[63] la_data_in[64] la_data_in[65]
+ la_data_in[66] la_data_in[67] la_data_in[68] la_data_in[69] la_data_in[6] la_data_in[70]
+ la_data_in[71] la_data_in[72] la_data_in[73] la_data_in[74] la_data_in[75] la_data_in[76]
+ la_data_in[77] la_data_in[78] la_data_in[79] la_data_in[7] la_data_in[80] la_data_in[81]
+ la_data_in[82] la_data_in[83] la_data_in[84] la_data_in[85] la_data_in[86] la_data_in[87]
+ la_data_in[88] la_data_in[89] la_data_in[8] la_data_in[90] la_data_in[91] la_data_in[92]
+ la_data_in[93] la_data_in[94] la_data_in[95] la_data_in[96] la_data_in[97] la_data_in[98]
+ la_data_in[99] la_data_in[9] la_data_out[0] la_data_out[100] la_data_out[101] la_data_out[102]
+ la_data_out[103] la_data_out[104] la_data_out[105] la_data_out[106] la_data_out[107]
+ la_data_out[108] la_data_out[109] la_data_out[10] la_data_out[110] la_data_out[111]
+ la_data_out[112] la_data_out[113] la_data_out[114] la_data_out[115] la_data_out[116]
+ la_data_out[117] la_data_out[118] la_data_out[119] la_data_out[11] la_data_out[120]
+ la_data_out[121] la_data_out[122] la_data_out[123] la_data_out[124] la_data_out[125]
+ la_data_out[126] la_data_out[127] la_data_out[12] la_data_out[13] la_data_out[14]
+ la_data_out[15] la_data_out[16] la_data_out[17] la_data_out[18] la_data_out[19]
+ la_data_out[1] la_data_out[20] la_data_out[21] la_data_out[22] la_data_out[23] la_data_out[24]
+ la_data_out[25] la_data_out[26] la_data_out[27] la_data_out[28] la_data_out[29]
+ la_data_out[2] la_data_out[30] la_data_out[31] la_data_out[32] la_data_out[33] la_data_out[34]
+ la_data_out[35] la_data_out[36] la_data_out[37] la_data_out[38] la_data_out[39]
+ la_data_out[3] la_data_out[40] la_data_out[41] la_data_out[42] la_data_out[43] la_data_out[44]
+ la_data_out[45] la_data_out[46] la_data_out[47] la_data_out[48] la_data_out[49]
+ la_data_out[4] la_data_out[50] la_data_out[51] la_data_out[52] la_data_out[53] la_data_out[54]
+ la_data_out[55] la_data_out[56] la_data_out[57] la_data_out[58] la_data_out[59]
+ la_data_out[5] la_data_out[60] la_data_out[61] la_data_out[62] la_data_out[63] la_data_out[64]
+ la_data_out[65] la_data_out[66] la_data_out[67] la_data_out[68] la_data_out[69]
+ la_data_out[6] la_data_out[70] la_data_out[71] la_data_out[72] la_data_out[73] la_data_out[74]
+ la_data_out[75] la_data_out[76] la_data_out[77] la_data_out[78] la_data_out[79]
+ la_data_out[7] la_data_out[80] la_data_out[81] la_data_out[82] la_data_out[83] la_data_out[84]
+ la_data_out[85] la_data_out[86] la_data_out[87] la_data_out[88] la_data_out[89]
+ la_data_out[8] la_data_out[90] la_data_out[91] la_data_out[92] la_data_out[93] la_data_out[94]
+ la_data_out[95] la_data_out[96] la_data_out[97] la_data_out[98] la_data_out[99]
+ la_data_out[9] la_oenb[0] la_oenb[100] la_oenb[101] la_oenb[102] la_oenb[103] la_oenb[104]
+ la_oenb[105] la_oenb[106] la_oenb[107] la_oenb[108] la_oenb[109] la_oenb[10] la_oenb[110]
+ la_oenb[111] la_oenb[112] la_oenb[113] la_oenb[114] la_oenb[115] la_oenb[116] la_oenb[117]
+ la_oenb[118] la_oenb[119] la_oenb[11] la_oenb[120] la_oenb[121] la_oenb[122] la_oenb[123]
+ la_oenb[124] la_oenb[125] la_oenb[126] la_oenb[127] la_oenb[12] la_oenb[13] la_oenb[14]
+ la_oenb[15] la_oenb[16] la_oenb[17] la_oenb[18] la_oenb[19] la_oenb[1] la_oenb[20]
+ la_oenb[21] la_oenb[22] la_oenb[23] la_oenb[24] la_oenb[25] la_oenb[26] la_oenb[27]
+ la_oenb[28] la_oenb[29] la_oenb[2] la_oenb[30] la_oenb[31] la_oenb[32] la_oenb[33]
+ la_oenb[34] la_oenb[35] la_oenb[36] la_oenb[37] la_oenb[38] la_oenb[39] la_oenb[3]
+ la_oenb[40] la_oenb[41] la_oenb[42] la_oenb[43] la_oenb[44] la_oenb[45] la_oenb[46]
+ la_oenb[47] la_oenb[48] la_oenb[49] la_oenb[4] la_oenb[50] la_oenb[51] la_oenb[52]
+ la_oenb[53] la_oenb[54] la_oenb[55] la_oenb[56] la_oenb[57] la_oenb[58] la_oenb[59]
+ la_oenb[5] la_oenb[60] la_oenb[61] la_oenb[62] la_oenb[63] la_oenb[64] la_oenb[65]
+ la_oenb[66] la_oenb[67] la_oenb[68] la_oenb[69] la_oenb[6] la_oenb[70] la_oenb[71]
+ la_oenb[72] la_oenb[73] la_oenb[74] la_oenb[75] la_oenb[76] la_oenb[77] la_oenb[78]
+ la_oenb[79] la_oenb[7] la_oenb[80] la_oenb[81] la_oenb[82] la_oenb[83] la_oenb[84]
+ la_oenb[85] la_oenb[86] la_oenb[87] la_oenb[88] la_oenb[89] la_oenb[8] la_oenb[90]
+ la_oenb[91] la_oenb[92] la_oenb[93] la_oenb[94] la_oenb[95] la_oenb[96] la_oenb[97]
+ la_oenb[98] la_oenb[99] la_oenb[9] user_clock2 user_irq[0] user_irq[1] user_irq[2]
+ vccd1 vccd2 vssa1 vdda2 vssa2 vssd1 vssd2 wb_clk_i wb_rst_i wbs_ack_o wbs_adr_i[0]
+ wbs_adr_i[10] wbs_adr_i[11] wbs_adr_i[12] wbs_adr_i[13] wbs_adr_i[14] wbs_adr_i[15]
+ wbs_adr_i[16] wbs_adr_i[17] wbs_adr_i[18] wbs_adr_i[19] wbs_adr_i[1] wbs_adr_i[20]
+ wbs_adr_i[21] wbs_adr_i[22] wbs_adr_i[23] wbs_adr_i[24] wbs_adr_i[25] wbs_adr_i[26]
+ wbs_adr_i[27] wbs_adr_i[28] wbs_adr_i[29] wbs_adr_i[2] wbs_adr_i[30] wbs_adr_i[31]
+ wbs_adr_i[3] wbs_adr_i[4] wbs_adr_i[5] wbs_adr_i[6] wbs_adr_i[7] wbs_adr_i[8] wbs_adr_i[9]
+ wbs_cyc_i wbs_dat_i[0] wbs_dat_i[10] wbs_dat_i[11] wbs_dat_i[12] wbs_dat_i[13] wbs_dat_i[14]
+ wbs_dat_i[15] wbs_dat_i[16] wbs_dat_i[17] wbs_dat_i[18] wbs_dat_i[19] wbs_dat_i[1]
+ wbs_dat_i[20] wbs_dat_i[21] wbs_dat_i[22] wbs_dat_i[23] wbs_dat_i[24] wbs_dat_i[25]
+ wbs_dat_i[26] wbs_dat_i[27] wbs_dat_i[28] wbs_dat_i[29] wbs_dat_i[2] wbs_dat_i[30]
+ wbs_dat_i[31] wbs_dat_i[3] wbs_dat_i[4] wbs_dat_i[5] wbs_dat_i[6] wbs_dat_i[7] wbs_dat_i[8]
+ wbs_dat_i[9] wbs_dat_o[0] wbs_dat_o[10] wbs_dat_o[11] wbs_dat_o[12] wbs_dat_o[13]
+ wbs_dat_o[14] wbs_dat_o[15] wbs_dat_o[16] wbs_dat_o[17] wbs_dat_o[18] wbs_dat_o[19]
+ wbs_dat_o[1] wbs_dat_o[20] wbs_dat_o[21] wbs_dat_o[22] wbs_dat_o[23] wbs_dat_o[24]
+ wbs_dat_o[25] wbs_dat_o[26] wbs_dat_o[27] wbs_dat_o[28] wbs_dat_o[29] wbs_dat_o[2]
+ wbs_dat_o[30] wbs_dat_o[31] wbs_dat_o[3] wbs_dat_o[4] wbs_dat_o[5] wbs_dat_o[6]
+ wbs_dat_o[7] wbs_dat_o[8] wbs_dat_o[9] wbs_sel_i[0] wbs_sel_i[1] wbs_sel_i[2] wbs_sel_i[3]
+ wbs_stb_i wbs_we_i
C0 pll_full_0/divbuf_1/OUT3 pll_full_0/divbuf_1/OUT4 0.36fF
C1 ro_div_0/divbuf_0/a_6240_n1600# ro_div_0/divbuf_0/a_6720_n1600# 0.26fF
C2 divbuf_1/a_4800_n1600# divbuf_1/a_5280_n1600# 0.26fF
C3 divbuf_5/a_35562_n240# divbuf_5/a_36052_n240# 0.04fF
C4 divbuf_3/a_7792_170# divbuf_3/OUT3 0.19fF
C5 ro_div_0/divbuf_0/a_29310_n840# ro_div_0/divbuf_0/a_29310_n1540# 0.01fF
C6 ro_div_0/divbuf_0/a_59550_n840# ro_div_0/divbuf_0/a_60030_n840# 0.07fF
C7 ro_div_0/divbuf_0/a_59520_n1600# ro_div_0/divbuf_0/a_59550_n1540# 0.19fF
C8 divbuf_1/a_58080_n1600# divbuf_1/a_58110_n1540# 0.19fF
C9 divbuf_1/a_58110_n840# divbuf_1/a_58590_n840# 0.07fF
C10 divbuf_1/a_27870_n840# divbuf_1/a_27870_n1540# 0.01fF
C11 divbuf_5/a_47040_n1600# divbuf_5/a_47070_n1540# 0.19fF
C12 divbuf_5/a_47070_n840# divbuf_5/a_47550_n840# 0.07fF
C13 divbuf_5/a_16830_n840# divbuf_5/a_16830_n1540# 0.01fF
C14 divbuf_3/a_14702_n240# divbuf_3/a_14430_n840# 0.01fF
C15 divbuf_0/a_3422_170# divbuf_0/a_3422_n240# 0.01fF
C16 pd_div_0/divbuf_0/a_32172_n240# pd_div_0/divbuf_0/OUT4 0.04fF
C17 pd_div_0/divbuf_0/a_57600_n1600# pd_div_0/divbuf_0/a_57630_n840# 0.04fF
C18 divbuf_2/a_28772_170# divbuf_2/a_28772_n240# 0.01fF
C19 divbuf_2/a_8272_n240# divbuf_2/a_8762_n240# 0.04fF
C20 divbuf_4/a_21120_n1600# divbuf_4/a_21150_n840# 0.04fF
C21 pll_full_0/divbuf_1/a_38962_n240# pll_full_0/divbuf_1/OUT4 0.04fF
C22 pll_full_0/divbuf_0/a_13742_170# pll_full_0/divbuf_0/a_14222_170# 0.07fF
C23 divbuf_0/a_33142_n240# divbuf_0/a_33150_n840# 0.06fF
C24 divbuf_0/a_42240_n1600# divbuf_0/a_42720_n1600# 0.26fF
C25 pd_div_0/divider_0/tspc_0/Z4 pd_div_0/divider_0/tspc_0/a_630_n680# 0.12fF
C26 pll_full_0/divider_0/tspc_1/a_630_n680# pll_full_0/divider_0/tspc_1/Z4 0.12fF
C27 pll_full_0/divider_0/prescaler_0/tspc_1/Z1 pll_full_0/divider_0/prescaler_0/tspc_1/Z4 0.00fF
C28 pll_full_0/divbuf_0/a_34560_n1600# pll_full_0/divbuf_0/a_35040_n1600# 0.26fF
C29 divbuf_2/a_20640_n1600# divbuf_2/a_20670_n1540# 0.19fF
C30 divbuf_2/a_20670_n840# divbuf_2/a_21150_n840# 0.07fF
C31 divbuf_2/a_19072_n240# divbuf_2/OUT4 0.04fF
C32 pll_full_0/divbuf_0/a_25382_n240# pll_full_0/divbuf_0/a_25470_n840# 0.03fF
C33 ro_div_0/divbuf_0/a_21012_170# ro_div_0/divbuf_0/a_21502_170# 0.07fF
C34 divbuf_0/a_34590_n1540# divbuf_0/a_35070_n1540# 0.11fF
C35 divbuf_1/a_15672_n240# divbuf_1/a_15390_n840# 0.01fF
C36 divbuf_3/a_9732_170# divbuf_3/a_10212_170# 0.07fF
C37 pll_full_0/divbuf_0/a_57630_n840# pll_full_0/divbuf_0/a_57630_n1540# 0.01fF
C38 pll_full_0/divbuf_0/a_26910_n1540# pll_full_0/divbuf_0/a_27390_n1540# 0.11fF
C39 divbuf_3/a_8762_n240# divbuf_3/OUT3 0.04fF
C40 pd_div_0/divbuf_0/a_35562_n240# pd_div_0/divbuf_0/a_36052_n240# 0.04fF
C41 divbuf_4/a_18582_170# divbuf_4/a_18582_n240# 0.01fF
C42 divbuf_4/a_37992_170# divbuf_4/a_38472_170# 0.07fF
C43 pll_full_0/divbuf_1/a_38962_n240# pll_full_0/divbuf_1/a_39442_n240# 0.05fF
C44 divbuf_3/a_43680_n1600# divbuf_3/a_44160_n1600# 0.26fF
C45 divbuf_3/a_34592_n240# divbuf_3/a_34590_n840# 0.06fF
C46 pd_div_0/divbuf_0/a_47040_n1600# pd_div_0/divbuf_0/a_47070_n1540# 0.19fF
C47 pd_div_0/divbuf_0/a_47070_n840# pd_div_0/divbuf_0/a_47550_n840# 0.07fF
C48 pd_div_0/divbuf_0/a_16830_n840# pd_div_0/divbuf_0/a_16830_n1540# 0.01fF
C49 pd_0/REF divbuf_4/a_510_n840# 0.07fF
C50 divbuf_4/a_10560_n1600# divbuf_4/a_10590_n1540# 0.19fF
C51 divbuf_4/a_37992_170# divbuf_4/OUT4 0.19fF
C52 divbuf_4/a_10590_n840# divbuf_4/a_11070_n840# 0.07fF
C53 pll_full_0/divbuf_1/a_50400_n1600# pll_full_0/divbuf_1/a_50430_n1540# 0.19fF
C54 pll_full_0/divbuf_1/a_20190_n840# pll_full_0/divbuf_1/a_20190_n1540# 0.01fF
C55 pll_full_0/divbuf_1/a_50430_n840# pll_full_0/divbuf_1/a_50910_n840# 0.07fF
C56 divbuf_3/a_36030_n1540# divbuf_3/a_36510_n1540# 0.11fF
C57 io_analog[9] gpio_analog[7] 2.37fF
C58 divbuf_0/a_20042_170# divbuf_0/OUT4 0.19fF
C59 divbuf_0/a_32160_n1600# divbuf_0/a_32190_n840# 0.04fF
C60 divbuf_4/OUT3 divbuf_4/OUT4 0.36fF
C61 pll_full_0/divbuf_0/a_24480_n1600# pll_full_0/divbuf_0/a_24510_n840# 0.04fF
C62 ro_div_0/divbuf_0/a_46080_n1600# ro_div_0/divbuf_0/a_46560_n1600# 0.26fF
C63 ro_div_0/divbuf_0/a_37022_n240# ro_div_0/divbuf_0/a_36990_n840# 0.05fF
C64 divbuf_1/a_44640_n1600# divbuf_1/a_45120_n1600# 0.26fF
C65 divbuf_1/a_35562_n240# divbuf_1/a_35550_n840# 0.05fF
C66 divbuf_5/a_24412_n240# divbuf_5/a_24510_n840# 0.03fF
C67 divbuf_5/a_33600_n1600# divbuf_5/a_34080_n1600# 0.26fF
C68 ro_div_0/divbuf_0/a_38430_n1540# ro_div_0/divbuf_0/a_38910_n1540# 0.11fF
C69 divbuf_1/a_36990_n1540# divbuf_1/a_37470_n1540# 0.11fF
C70 divbuf_3/a_33600_n1600# divbuf_3/a_33630_n840# 0.04fF
C71 divbuf_5/a_56670_n840# divbuf_5/a_56670_n1540# 0.01fF
C72 divbuf_5/a_25950_n1540# divbuf_5/a_26430_n1540# 0.11fF
C73 divbuf_0/a_9242_n240# divbuf_0/a_9732_n240# 0.04fF
C74 divbuf_0/a_29742_170# divbuf_0/a_29742_n240# 0.01fF
C75 divbuf_4/a_38962_n240# divbuf_4/OUT4 0.04fF
C76 pll_full_0/divbuf_0/a_21982_170# pll_full_0/divbuf_0/a_21982_n240# 0.01fF
C77 ro_div_0/divbuf_0/a_36052_170# ro_div_0/divbuf_0/OUT4 0.19fF
C78 divbuf_2/a_7200_n1600# divbuf_2/a_7680_n1600# 0.26fF
C79 divbuf_0/a_21012_n240# divbuf_0/OUT4 0.04fF
C80 divbuf_0/a_21630_n840# divbuf_0/a_22110_n840# 0.07fF
C81 divbuf_0/a_21600_n1600# divbuf_0/a_21630_n1540# 0.19fF
C82 divbuf_1/a_12772_170# divbuf_1/a_12772_n240# 0.01fF
C83 pll_full_0/divbuf_0/a_13950_n840# pll_full_0/divbuf_0/a_14430_n840# 0.07fF
C84 pll_full_0/divbuf_0/a_13920_n1600# pll_full_0/divbuf_0/a_13950_n1540# 0.19fF
C85 divbuf_2/a_60510_n840# divbuf_2/a_60990_n840# 0.07fF
C86 divbuf_2/a_30270_n840# divbuf_2/a_30270_n1540# 0.01fF
C87 divbuf_2/a_60480_n1600# divbuf_2/a_60510_n1540# 0.19fF
C88 pll_full_0/divbuf_0/a_5362_n240# pll_full_0/divbuf_0/OUT3 0.04fF
C89 ro_div_0/divbuf_0/a_36000_n1600# ro_div_0/divbuf_0/a_36030_n840# 0.04fF
C90 ro_div_0/divider_0/prescaler_0/m1_2700_2190# gnd 0.22fF
C91 pd_div_0/pd_0/tspc_r_1/Z3 pd_div_0/pd_0/tspc_r_1/Qbar1 0.38fF
C92 divbuf_1/a_21502_170# divbuf_1/OUT4 0.19fF
C93 divbuf_1/a_34560_n1600# divbuf_1/a_34590_n840# 0.04fF
C94 divbuf_3/a_31202_170# divbuf_3/a_31202_n240# 0.01fF
C95 divbuf_3/a_11312_n240# divbuf_3/a_11802_n240# 0.04fF
C96 divbuf_5/a_2322_170# divbuf_5/OUT2 0.19fF
C97 divbuf_5/a_23520_n1600# divbuf_5/a_23550_n840# 0.04fF
C98 pd_div_0/divbuf_0/a_24412_n240# pd_div_0/divbuf_0/a_24510_n840# 0.03fF
C99 pd_div_0/divbuf_0/a_33600_n1600# pd_div_0/divbuf_0/a_34080_n1600# 0.26fF
C100 divbuf_4/a_38962_n240# divbuf_4/a_39442_n240# 0.05fF
C101 divbuf_3/a_23040_n1600# divbuf_3/a_23070_n1540# 0.19fF
C102 divbuf_3/a_23070_n840# divbuf_3/a_23550_n840# 0.07fF
C103 pll_full_0/divbuf_1/a_36960_n1600# pll_full_0/divbuf_1/a_37440_n1600# 0.26fF
C104 pll_full_0/divbuf_1/a_27802_n240# pll_full_0/divbuf_1/a_27870_n840# 0.04fF
C105 pd_div_0/divbuf_0/a_56670_n840# pd_div_0/divbuf_0/a_56670_n1540# 0.01fF
C106 pd_div_0/divbuf_0/a_25950_n1540# pd_div_0/divbuf_0/a_26430_n1540# 0.11fF
C107 divbuf_2/a_18092_n240# divbuf_2/a_17790_n840# 0.00fF
C108 divbuf_4/a_50430_n840# divbuf_4/a_50910_n840# 0.07fF
C109 divbuf_4/a_20190_n840# divbuf_4/a_20190_n1540# 0.01fF
C110 divbuf_4/a_50400_n1600# divbuf_4/a_50430_n1540# 0.19fF
C111 pll_full_0/divbuf_1/a_29310_n1540# pll_full_0/divbuf_1/a_29790_n1540# 0.11fF
C112 pll_full_0/divbuf_1/a_60030_n840# pll_full_0/divbuf_1/a_60030_n1540# 0.01fF
C113 divbuf_0/a_19200_n1600# divbuf_0/OUT4 0.00fF
C114 divbuf_1/a_12282_n240# divbuf_1/a_12772_n240# 0.04fF
C115 divbuf_5/a_40412_170# divbuf_5/a_40902_170# 0.07fF
C116 divbuf_5/a_21012_170# divbuf_5/a_21012_n240# 0.01fF
C117 ro_div_0/divbuf_0/a_25470_n840# ro_div_0/divbuf_0/a_25950_n840# 0.07fF
C118 ro_div_0/divbuf_0/a_25440_n1600# ro_div_0/divbuf_0/a_25470_n1540# 0.19fF
C119 ro_div_0/divbuf_0/a_28772_n240# ro_div_0/divbuf_0/OUT4 0.04fF
C120 divbuf_1/a_25862_n240# divbuf_1/OUT4 0.04fF
C121 divbuf_1/a_24000_n1600# divbuf_1/a_24030_n1540# 0.19fF
C122 divbuf_1/a_24030_n840# divbuf_1/a_24510_n840# 0.07fF
C123 divbuf_5/a_3422_n240# divbuf_5/OUT3 0.07fF
C124 divbuf_5/a_12960_n1600# divbuf_5/a_12990_n1540# 0.19fF
C125 divbuf_5/a_12990_n840# divbuf_5/a_13470_n840# 0.07fF
C126 pll_full_0/ro_complete_0/a1 pll_full_0/divider_0/clk 0.11fF
C127 pd_0/DOWN divbuf_2/a_492_n240# 0.13fF
C128 pd_div_0/divbuf_0/a_23520_n1600# pd_div_0/divbuf_0/a_23550_n840# 0.04fF
C129 divbuf_2/a_13742_170# divbuf_2/a_14222_170# 0.07fF
C130 pll_full_0/divbuf_1/a_9242_170# pll_full_0/divbuf_1/OUT3 0.19fF
C131 pll_full_0/divbuf_1/a_26880_n1600# pll_full_0/divbuf_1/a_26910_n840# 0.04fF
C132 divbuf_0/a_8160_n1600# divbuf_0/a_8640_n1600# 0.26fF
C133 pll_full_0/divbuf_0/a_480_n1600# pll_full_0/divbuf_0/a_960_n1600# 0.26fF
C134 divbuf_2/a_37992_n240# divbuf_2/a_37950_n840# 0.04fF
C135 divbuf_2/a_47040_n1600# divbuf_2/a_47520_n1600# 0.26fF
C136 divbuf_0/a_510_n1540# divbuf_0/a_990_n1540# 0.11fF
C137 divbuf_0/a_31230_n840# divbuf_0/a_31230_n1540# 0.01fF
C138 divbuf_2/a_39390_n1540# divbuf_2/a_39870_n1540# 0.11fF
C139 pll_full_0/divbuf_0/a_53760_n1600# pll_full_0/divbuf_0/a_53790_n1540# 0.19fF
C140 pll_full_0/divbuf_0/a_53790_n840# pll_full_0/divbuf_0/a_54270_n840# 0.07fF
C141 pll_full_0/divbuf_0/a_23550_n840# pll_full_0/divbuf_0/a_23550_n1540# 0.01fF
C142 pd_div_0/divbuf_0/a_40412_170# pd_div_0/divbuf_0/a_40902_170# 0.07fF
C143 pd_div_0/divbuf_0/a_21012_170# pd_div_0/divbuf_0/a_21012_n240# 0.01fF
C144 divbuf_1/a_24000_n1600# divbuf_1/OUT4 0.00fF
C145 divbuf_3/a_9600_n1600# divbuf_3/a_10080_n1600# 0.26fF
C146 divbuf_5/a_2880_n1600# divbuf_5/OUT2 0.00fF
C147 pll_full_0/divbuf_1/a_24412_170# pll_full_0/divbuf_1/a_24412_n240# 0.01fF
C148 pll_full_0/divbuf_1/a_3912_n240# pll_full_0/divbuf_1/a_4392_n240# 0.05fF
C149 ro_div_0/divider_0/prescaler_0/tspc_2/D ro_div_0/divider_0/prescaler_0/nand_1/z1 0.21fF
C150 pd_div_0/divbuf_0/a_3422_n240# pd_div_0/divbuf_0/OUT3 0.07fF
C151 pd_div_0/divbuf_0/a_12960_n1600# pd_div_0/divbuf_0/a_12990_n1540# 0.19fF
C152 pd_div_0/divbuf_0/a_12990_n840# pd_div_0/divbuf_0/a_13470_n840# 0.07fF
C153 divbuf_4/a_27802_n240# divbuf_4/a_27870_n840# 0.04fF
C154 divbuf_4/a_36960_n1600# divbuf_4/a_37440_n1600# 0.26fF
C155 pll_full_0/divbuf_1/a_16320_n1600# pll_full_0/divbuf_1/a_16350_n1540# 0.19fF
C156 pll_full_0/divbuf_1/a_10212_n240# pll_full_0/divbuf_1/OUT3 0.04fF
C157 pll_full_0/divbuf_1/a_16350_n840# pll_full_0/divbuf_1/a_16830_n840# 0.07fF
C158 divbuf_3/a_32670_n840# divbuf_3/a_32670_n1540# 0.01fF
C159 divbuf_3/a_1950_n1540# divbuf_3/a_2430_n1540# 0.11fF
C160 divbuf_1/a_17122_170# divbuf_1/a_17612_170# 0.07fF
C161 divbuf_2/a_36960_n1600# divbuf_2/a_36990_n840# 0.04fF
C162 divbuf_2/a_29742_170# divbuf_2/OUT4 0.19fF
C163 divbuf_4/a_60030_n840# divbuf_4/a_60030_n1540# 0.01fF
C164 divbuf_4/a_29310_n1540# divbuf_4/a_29790_n1540# 0.11fF
C165 pll_full_0/divbuf_0/a_11312_n240# pll_full_0/divbuf_0/a_11070_n840# 0.02fF
C166 ro_div_0/divbuf_0/a_12000_n1600# ro_div_0/divbuf_0/a_12480_n1600# 0.26fF
C167 divbuf_1/a_10560_n1600# divbuf_1/a_11040_n1600# 0.26fF
C168 pd_0/DIV pd_0/tspc_r_0/Z4 0.02fF
C169 divbuf_3/a_19562_170# divbuf_3/OUT4 0.19fF
C170 ro_div_0/divbuf_0/a_4350_n1540# ro_div_0/divbuf_0/a_4830_n1540# 0.11fF
C171 ro_div_0/divbuf_0/a_35070_n840# ro_div_0/divbuf_0/a_35070_n1540# 0.01fF
C172 divbuf_1/a_33630_n840# divbuf_1/a_33630_n1540# 0.01fF
C173 divbuf_1/a_2910_n1540# divbuf_1/a_3390_n1540# 0.11fF
C174 divbuf_5/a_52800_n1600# divbuf_5/a_52830_n1540# 0.19fF
C175 divbuf_5/a_52830_n840# divbuf_5/a_53310_n840# 0.07fF
C176 divbuf_5/a_22590_n840# divbuf_5/a_22590_n1540# 0.01fF
C177 pd_div_0/divbuf_0/a_2880_n1600# pd_div_0/divbuf_0/OUT2 0.00fF
C178 divbuf_2/a_14702_n240# divbuf_2/a_15182_n240# 0.05fF
C179 divbuf_2/a_34592_170# divbuf_2/a_34592_n240# 0.01fF
C180 divbuf_4/a_26880_n1600# divbuf_4/a_26910_n840# 0.04fF
C181 divbuf_4/a_9242_170# divbuf_4/OUT3 0.19fF
C182 pll_full_0/divbuf_1/a_9120_n1600# pll_full_0/divbuf_1/OUT3 0.00fF
C183 divbuf_0/a_48000_n1600# divbuf_0/a_48480_n1600# 0.26fF
C184 divbuf_0/a_492_n240# divbuf_0/IN 0.13fF
C185 divbuf_0/a_38962_n240# divbuf_0/a_38910_n840# 0.04fF
C186 ro_div_0/divbuf_0/a_8762_170# ro_div_0/divbuf_0/a_9242_170# 0.07fF
C187 pd_div_0/divider_0/prescaler_0/tspc_0/a_630_n680# pd_div_0/divider_0/prescaler_0/tspc_0/Q 0.04fF
C188 pd_div_0/divider_0/tspc_0/Z4 gnd 0.44fF
C189 divbuf_1/a_7302_170# divbuf_1/a_6822_170# 0.07fF
C190 divbuf_2/a_26430_n840# divbuf_2/a_26910_n840# 0.07fF
C191 divbuf_2/a_30712_n240# divbuf_2/OUT4 0.04fF
C192 divbuf_2/a_26400_n1600# divbuf_2/a_26430_n1540# 0.19fF
C193 pll_full_0/divider_0/prescaler_0/tspc_2/Z1 pll_full_0/divider_0/prescaler_0/tspc_2/Z3 0.06fF
C194 pll_full_0/divbuf_0/a_31202_n240# pll_full_0/divbuf_0/a_31230_n840# 0.05fF
C195 pll_full_0/divbuf_0/a_40320_n1600# pll_full_0/divbuf_0/a_40800_n1600# 0.26fF
C196 ro_div_0/divbuf_0/a_13742_170# ro_div_0/divbuf_0/a_13742_n240# 0.01fF
C197 ro_div_0/divbuf_0/a_26832_170# ro_div_0/divbuf_0/a_27322_170# 0.07fF
C198 ro_div_0/divbuf_0/a_6332_170# ro_div_0/divbuf_0/a_6332_n240# 0.01fF
C199 divbuf_0/a_40350_n1540# divbuf_0/a_40830_n1540# 0.11fF
C200 ro_div_0/divbuf_0/a_1920_n1600# ro_div_0/divbuf_0/a_1950_n840# 0.04fF
C201 divbuf_1/a_480_n1600# divbuf_1/a_510_n840# 0.04fF
C202 divbuf_3/a_16152_170# divbuf_3/a_16642_170# 0.07fF
C203 pll_full_0/divbuf_0/a_32670_n1540# pll_full_0/divbuf_0/a_33150_n1540# 0.11fF
C204 divbuf_3/a_20532_n240# divbuf_3/OUT4 0.04fF
C205 divbuf_4/a_3912_n240# divbuf_4/a_4392_n240# 0.05fF
C206 divbuf_4/a_24412_170# divbuf_4/a_24412_n240# 0.01fF
C207 pll_full_0/divbuf_1/a_2880_n1600# pll_full_0/divbuf_1/a_3360_n1600# 0.26fF
C208 divbuf_3/a_49440_n1600# divbuf_3/a_49920_n1600# 0.26fF
C209 divbuf_3/a_40412_n240# divbuf_3/a_40350_n840# 0.04fF
C210 divbuf_0/a_14222_170# divbuf_0/a_14222_n240# 0.01fF
C211 pd_div_0/divbuf_0/a_52800_n1600# pd_div_0/divbuf_0/a_52830_n1540# 0.19fF
C212 pd_div_0/divbuf_0/a_52830_n840# pd_div_0/divbuf_0/a_53310_n840# 0.07fF
C213 pd_div_0/divbuf_0/a_22590_n840# pd_div_0/divbuf_0/a_22590_n1540# 0.01fF
C214 divbuf_4/a_16350_n840# divbuf_4/a_16830_n840# 0.07fF
C215 divbuf_4/a_10212_n240# divbuf_4/OUT3 0.04fF
C216 divbuf_4/a_16320_n1600# divbuf_4/a_16350_n1540# 0.19fF
C217 pll_full_0/divbuf_1/a_25950_n840# pll_full_0/divbuf_1/a_25950_n1540# 0.01fF
C218 pll_full_0/divbuf_1/a_56190_n840# pll_full_0/divbuf_1/a_56670_n840# 0.07fF
C219 pll_full_0/divbuf_1/a_56160_n1600# pll_full_0/divbuf_1/a_56190_n1540# 0.19fF
C220 ro_div_0/divbuf_0/a_6332_170# ro_div_0/divbuf_0/OUT3 0.19fF
C221 divbuf_3/a_41790_n1540# divbuf_3/a_42270_n1540# 0.11fF
C222 divbuf_0/a_31682_170# divbuf_0/OUT4 0.19fF
C223 divbuf_0/a_37920_n1600# divbuf_0/a_37950_n840# 0.04fF
C224 divbuf_1/a_2322_170# divbuf_1/a_2322_n240# 0.01fF
C225 divbuf_5/a_5362_170# divbuf_5/a_5852_170# 0.07fF
C226 pll_full_0/divbuf_0/a_30240_n1600# pll_full_0/divbuf_0/a_30270_n840# 0.04fF
C227 pll_full_0/divbuf_0/a_17612_170# pll_full_0/divbuf_0/OUT4 0.19fF
C228 ro_div_0/divbuf_0/a_51840_n1600# ro_div_0/divbuf_0/a_52320_n1600# 0.26fF
C229 divbuf_1/a_50400_n1600# divbuf_1/a_50880_n1600# 0.26fF
C230 divbuf_1/a_41382_n240# divbuf_1/a_41310_n840# 0.03fF
C231 divbuf_5/a_39360_n1600# divbuf_5/a_39840_n1600# 0.26fF
C232 divbuf_5/a_30232_n240# divbuf_5/a_30270_n840# 0.05fF
C233 ro_div_0/divbuf_0/a_44190_n1540# ro_div_0/divbuf_0/a_44670_n1540# 0.11fF
C234 divbuf_1/a_42750_n1540# divbuf_1/a_43230_n1540# 0.11fF
C235 pll_full_0/divbuf_1/a_13742_n240# pll_full_0/divbuf_1/a_13470_n840# 0.01fF
C236 ro_div_0/divbuf_0/a_23442_170# ro_div_0/divbuf_0/a_23442_n240# 0.01fF
C237 divbuf_3/a_39360_n1600# divbuf_3/a_39390_n840# 0.04fF
C238 divbuf_5/a_31710_n1540# divbuf_5/a_32190_n1540# 0.11fF
C239 ro_div_0/divbuf_0/a_12282_170# ro_div_0/divbuf_0/OUT4 0.19fF
C240 divbuf_0/a_35562_170# divbuf_0/a_35562_n240# 0.01fF
C241 divbuf_0/a_15672_n240# divbuf_0/a_16152_n240# 0.05fF
C242 divbuf_4/a_9120_n1600# divbuf_4/OUT3 0.00fF
C243 pll_full_0/divbuf_0/a_7302_n240# pll_full_0/divbuf_0/a_7792_n240# 0.04fF
C244 ro_div_0/divbuf_0/a_8272_n240# ro_div_0/divbuf_0/OUT3 0.04fF
C245 ro_div_0/ro_complete_0/cbank_1/switch_4/vin ro_div_0/divider_0/clk 1.30fF
C246 divbuf_2/a_3422_n240# divbuf_2/a_3390_n840# 0.05fF
C247 divbuf_2/a_12960_n1600# divbuf_2/a_13440_n1600# 0.26fF
C248 pll_full_0/divbuf_0/a_27802_170# pll_full_0/divbuf_0/a_27802_n240# 0.01fF
C249 divbuf_0/a_27360_n1600# divbuf_0/a_27390_n1540# 0.19fF
C250 divbuf_0/a_32652_n240# divbuf_0/OUT4 0.04fF
C251 divbuf_0/a_27390_n840# divbuf_0/a_27870_n840# 0.07fF
C252 pll_full_0/divbuf_0/a_17122_n240# pll_full_0/divbuf_0/OUT4 0.04fF
C253 divbuf_2/a_36030_n840# divbuf_2/a_36030_n1540# 0.01fF
C254 divbuf_2/a_5310_n1540# divbuf_2/a_5790_n1540# 0.11fF
C255 pll_full_0/divbuf_0/a_19680_n1600# pll_full_0/divbuf_0/a_19710_n1540# 0.19fF
C256 pll_full_0/divbuf_0/a_19710_n840# pll_full_0/divbuf_0/a_20190_n840# 0.07fF
C257 ro_div_0/divbuf_0/a_41760_n1600# ro_div_0/divbuf_0/a_41790_n840# 0.04fF
C258 pd_div_0/pd_0/tspc_r_1/Qbar pd_div_0/pd_0/and_pd_0/Z1 0.02fF
C259 pd_div_0/divbuf_0/a_4392_170# pd_div_0/divbuf_0/a_3912_170# 0.07fF
C260 pd_div_0/divbuf_0/a_13252_170# pd_div_0/divbuf_0/a_13742_170# 0.07fF
C261 divbuf_1/a_40320_n1600# divbuf_1/a_40350_n840# 0.04fF
C262 divbuf_1/a_36532_170# divbuf_1/OUT4 0.19fF
C263 pll_full_0/divbuf_1/a_8762_170# pll_full_0/divbuf_1/a_9242_170# 0.07fF
C264 divbuf_3/a_37022_170# divbuf_3/a_37022_n240# 0.01fF
C265 divbuf_3/a_17122_n240# divbuf_3/a_17612_n240# 0.04fF
C266 divbuf_5/a_29280_n1600# divbuf_5/a_29310_n840# 0.04fF
C267 divbuf_5/a_14222_170# divbuf_5/OUT4 0.19fF
C268 pd_div_0/divbuf_0/a_39360_n1600# pd_div_0/divbuf_0/a_39840_n1600# 0.26fF
C269 pd_div_0/divbuf_0/a_30232_n240# pd_div_0/divbuf_0/a_30270_n840# 0.05fF
C270 divbuf_4/a_2880_n1600# divbuf_4/a_3360_n1600# 0.26fF
C271 pll_full_0/divbuf_1/a_33622_n240# pll_full_0/divbuf_1/a_33630_n840# 0.06fF
C272 pll_full_0/divbuf_1/a_42720_n1600# pll_full_0/divbuf_1/a_43200_n1600# 0.26fF
C273 divbuf_3/a_28830_n840# divbuf_3/a_29310_n840# 0.07fF
C274 divbuf_3/a_28800_n1600# divbuf_3/a_28830_n1540# 0.19fF
C275 pd_div_0/divbuf_0/a_31710_n1540# pd_div_0/divbuf_0/a_32190_n1540# 0.11fF
C276 divbuf_4/a_56160_n1600# divbuf_4/a_56190_n1540# 0.19fF
C277 divbuf_4/a_56190_n840# divbuf_4/a_56670_n840# 0.07fF
C278 divbuf_4/a_25950_n840# divbuf_4/a_25950_n1540# 0.01fF
C279 divbuf_2/a_2880_n1600# divbuf_2/a_2910_n840# 0.04fF
C280 pll_full_0/divbuf_1/a_35070_n1540# pll_full_0/divbuf_1/a_35550_n1540# 0.11fF
C281 divbuf_1/a_37992_170# divbuf_1/a_37992_n240# 0.01fF
C282 divbuf_1/a_18092_n240# divbuf_1/a_18582_n240# 0.04fF
C283 divbuf_1/a_492_n240# divbuf_1/a_510_n840# 0.00fF
C284 divbuf_5/a_26832_170# divbuf_5/a_26832_n240# 0.01fF
C285 divbuf_5/a_6332_n240# divbuf_5/a_6822_n240# 0.04fF
C286 ro_div_0/divbuf_0/a_40412_n240# ro_div_0/divbuf_0/OUT4 0.04fF
C287 ro_div_0/divbuf_0/a_990_n840# ro_div_0/divbuf_0/a_990_n1540# 0.01fF
C288 ro_div_0/divbuf_0/a_31230_n840# ro_div_0/divbuf_0/a_31710_n840# 0.07fF
C289 ro_div_0/divbuf_0/a_31200_n1600# ro_div_0/divbuf_0/a_31230_n1540# 0.19fF
C290 pd_div_0/divbuf_0/a_3912_170# pd_div_0/divbuf_0/a_3912_n240# 0.01fF
C291 divbuf_1/a_29760_n1600# divbuf_1/a_29790_n1540# 0.19fF
C292 divbuf_1/a_29790_n840# divbuf_1/a_30270_n840# 0.07fF
C293 divbuf_1/a_37502_n240# divbuf_1/OUT4 0.04fF
C294 divbuf_5/a_18720_n1600# divbuf_5/a_18750_n1540# 0.19fF
C295 divbuf_5/a_18750_n840# divbuf_5/a_19230_n840# 0.07fF
C296 divbuf_5/a_15182_n240# divbuf_5/OUT4 0.04fF
C297 pd_div_0/divbuf_0/a_11802_170# pd_div_0/divbuf_0/OUT4 0.19fF
C298 pd_div_0/divbuf_0/a_29280_n1600# pd_div_0/divbuf_0/a_29310_n840# 0.04fF
C299 divbuf_4/a_13742_n240# divbuf_4/a_13470_n840# 0.01fF
C300 divbuf_2/a_19562_170# divbuf_2/a_20042_170# 0.07fF
C301 pll_full_0/pd_0/tspc_r_0/Z4 pll_full_0/pd_0/tspc_r_0/z5 0.04fF
C302 pll_full_0/pd_0/DOWN pll_full_0/pd_0/UP 4.58fF
C303 pll_full_0/divbuf_1/a_21012_170# pll_full_0/divbuf_1/OUT4 0.19fF
C304 pll_full_0/divbuf_1/a_32640_n1600# pll_full_0/divbuf_1/a_32670_n840# 0.04fF
C305 divbuf_0/a_13920_n1600# divbuf_0/a_14400_n1600# 0.26fF
C306 divbuf_0/a_4392_n240# divbuf_0/a_4350_n840# 0.04fF
C307 divbuf_2/a_52800_n1600# divbuf_2/a_53280_n1600# 0.26fF
C308 divbuf_2/a_492_n240# divbuf_2/OUT2 0.42fF
C309 pll_full_0/divbuf_0/a_6240_n1600# pll_full_0/divbuf_0/a_6720_n1600# 0.26fF
C310 divbuf_0/a_6270_n1540# divbuf_0/a_6750_n1540# 0.11fF
C311 divbuf_0/a_36990_n840# divbuf_0/a_36990_n1540# 0.01fF
C312 pll_full_0/divbuf_0/a_29310_n840# pll_full_0/divbuf_0/a_29310_n1540# 0.01fF
C313 pll_full_0/divbuf_0/a_59550_n840# pll_full_0/divbuf_0/a_60030_n840# 0.07fF
C314 pll_full_0/divbuf_0/a_59520_n1600# pll_full_0/divbuf_0/a_59550_n1540# 0.19fF
C315 divbuf_2/a_45150_n1540# divbuf_2/a_45630_n1540# 0.11fF
C316 pd_div_0/divbuf_0/a_26832_170# pd_div_0/divbuf_0/a_26832_n240# 0.01fF
C317 pd_div_0/divbuf_0/a_6332_n240# pd_div_0/divbuf_0/a_6822_n240# 0.04fF
C318 divbuf_4/a_8762_170# divbuf_4/a_9242_170# 0.07fF
C319 divbuf_1/a_35520_n1600# divbuf_1/OUT4 0.00fF